4c0r_ligand
 OpenBabel08222323353D

 58 57  0  0  1  0  0  0  0  0999 V2000
    8.7040   -8.8810   21.4750 C   0  0  0  0  0  0  0  0  0  0  0  0
    7.4860   -9.4780   22.0390 N   0  3  0  0  0  0  0  0  0  0  0  0
    6.3160   -8.6860   21.9210 C   0  0  2  0  0  0  0  0  0  0  0  0
    5.5220   -8.7470   20.6640 C   0  0  0  0  0  0  0  0  0  0  0  0
    4.7740   -7.8020   20.3360 O   0  0  0  0  0  0  0  0  0  0  0  0
    5.8230   -7.7570   22.9630 C   0  0  0  0  0  0  0  0  0  0  0  0
    6.7310   -7.8610   24.4900 S   0  0  0  0  0  0  0  0  0  0  0  0
    5.6550   -9.9350   19.8470 N   0  0  0  0  0  0  0  0  0  0  0  0
    4.9680  -10.0050   18.5580 C   0  0  0  0  0  0  0  0  0  0  0  0
    6.0900   -9.7960   17.5440 C   0  0  0  0  0  0  0  0  0  0  0  0
    6.0980  -10.4240   16.4390 O   0  5  0  0  0  0  0  0  0  0  0  0
    7.0540   -9.0070   17.7660 O   0  0  0  0  0  0  0  0  0  0  0  0
    5.6520   -7.4850   27.5260 N   0  0  0  0  0  0  0  0  0  0  0  0
    5.1540   -8.8330   27.6640 C   0  0  0  0  0  0  0  0  0  0  0  0
    6.1450   -9.6800   28.3830 C   0  0  0  0  0  0  0  0  0  0  0  0
    7.0340   -9.1690   29.1310 O   0  5  0  0  0  0  0  0  0  0  0  0
    6.0170  -10.9300   28.2620 O   0  0  0  0  0  0  0  0  0  0  0  0
    4.8740   -6.5430   26.7840 C   0  0  0  0  0  0  0  0  0  0  0  0
    3.7870   -6.8780   26.3160 O   0  0  0  0  0  0  0  0  0  0  0  0
    5.5330   -5.2520   26.5910 C   0  0  1  0  0  0  0  0  0  0  0  0
    6.3160   -4.7230   27.6300 N   0  0  0  0  0  0  0  0  0  0  0  0
    5.9860   -5.0080   25.1890 C   0  0  0  0  0  0  0  0  0  0  0  0
    7.4660   -6.0060   24.8680 S   0  0  0  0  0  0  0  0  0  0  0  0
    7.5140   -4.0580   32.1500 C   0  0  1  0  0  0  0  0  0  0  0  0
    8.8260   -3.3980   31.7570 C   0  0  0  0  0  0  0  0  0  0  0  0
    9.7590   -4.1250   31.3190 O   0  5  0  0  0  0  0  0  0  0  0  0
    8.9760   -2.1560   31.8490 O   0  0  0  0  0  0  0  0  0  0  0  0
    6.6980   -3.0400   32.8380 N   0  3  0  0  0  0  0  0  0  0  0  0
    6.8200   -4.6270   30.9660 C   0  0  0  0  0  0  0  0  0  0  0  0
    6.8710   -3.6120   29.8020 C   0  0  0  0  0  0  0  0  0  0  0  0
    5.8570   -4.0720   28.7760 C   0  0  0  0  0  0  0  0  0  0  0  0
    4.6320   -3.8970   28.8480 O   0  0  0  0  0  0  0  0  0  0  0  0
    9.5496   -9.5701   21.6167 H   0  0  0  0  0  0  0  0  0  0  0  0
    8.9165   -7.9301   21.9854 H   0  0  0  0  0  0  0  0  0  0  0  0
    8.5580   -8.6958   20.4006 H   0  0  0  0  0  0  0  0  0  0  0  0
    7.6481   -9.6509   23.0187 H   0  0  0  0  0  0  0  0  0  0  0  0
    7.3196  -10.3527   21.5664 H   0  0  0  0  0  0  0  0  0  0  0  0
    5.7265   -9.5025   22.3635 H   0  0  0  0  0  0  0  0  0  0  0  0
    4.7680   -7.9913   23.1681 H   0  0  0  0  0  0  0  0  0  0  0  0
    5.9025   -6.7291   22.5795 H   0  0  0  0  0  0  0  0  0  0  0  0
    6.2130  -10.7026   20.1622 H   0  0  0  0  0  0  0  0  0  0  0  0
    4.2092   -9.2131   18.4734 H   0  0  0  0  0  0  0  0  0  0  0  0
    4.4909  -10.9864   18.4196 H   0  0  0  0  0  0  0  0  0  0  0  0
    6.5216   -7.2163   27.9402 H   0  0  0  0  0  0  0  0  0  0  0  0
    4.9720   -9.2564   26.6652 H   0  0  0  0  0  0  0  0  0  0  0  0
    4.2122   -8.8153   28.2320 H   0  0  0  0  0  0  0  0  0  0  0  0
    4.6674   -4.5756   26.6473 H   0  0  0  0  0  0  0  0  0  0  0  0
    7.3068   -4.8234   27.5391 H   0  0  0  0  0  0  0  0  0  0  0  0
    6.2239   -3.9421   25.0580 H   0  0  0  0  0  0  0  0  0  0  0  0
    5.1882   -5.2946   24.4880 H   0  0  0  0  0  0  0  0  0  0  0  0
    7.7220   -4.8798   32.8510 H   0  0  0  0  0  0  0  0  0  0  0  0
    5.8172   -3.4454   33.1135 H   0  0  0  0  0  0  0  0  0  0  0  0
    6.5311   -2.2657   32.2146 H   0  0  0  0  0  0  0  0  0  0  0  0
    7.1880   -2.7132   33.6560 H   0  0  0  0  0  0  0  0  0  0  0  0
    5.7714   -4.8386   31.2222 H   0  0  0  0  0  0  0  0  0  0  0  0
    7.3184   -5.5592   30.6617 H   0  0  0  0  0  0  0  0  0  0  0  0
    7.8774   -3.5947   29.3584 H   0  0  0  0  0  0  0  0  0  0  0  0
    6.6129   -2.6062   30.1650 H   0  0  0  0  0  0  0  0  0  0  0  0
  1 33  1  0  0  0  0
  1 34  1  0  0  0  0
  1 35  1  0  0  0  0
  2  1  1  0  0  0  0
  2 36  1  0  0  0  0
  2 37  1  0  0  0  0
  3  2  1  0  0  0  0
  3  4  1  0  0  0  0
  3 38  1  1  0  0  0
  4  5  2  0  0  0  0
  4  8  1  0  0  0  0
  6  3  1  0  0  0  0
  6 39  1  0  0  0  0
  6 40  1  0  0  0  0
  7  6  1  0  0  0  0
  8  9  1  0  0  0  0
  8 41  1  0  0  0  0
  9 10  1  0  0  0  0
  9 42  1  0  0  0  0
  9 43  1  0  0  0  0
 10 11  1  0  0  0  0
 10 12  2  0  0  0  0
 13 14  1  0  0  0  0
 13 44  1  0  0  0  0
 14 15  1  0  0  0  0
 14 45  1  0  0  0  0
 14 46  1  0  0  0  0
 15 16  1  0  0  0  0
 15 17  2  0  0  0  0
 18 13  1  0  0  0  0
 18 19  2  0  0  0  0
 20 18  1  0  0  0  0
 20 22  1  0  0  0  0
 20 47  1  1  0  0  0
 21 20  1  0  0  0  0
 21 48  1  0  0  0  0
 22 23  1  0  0  0  0
 22 49  1  0  0  0  0
 22 50  1  0  0  0  0
 23  7  1  0  0  0  0
 24 25  1  0  0  0  0
 24 28  1  0  0  0  0
 24 51  1  1  0  0  0
 25 26  1  0  0  0  0
 25 27  2  0  0  0  0
 28 52  1  0  0  0  0
 28 53  1  0  0  0  0
 28 54  1  0  0  0  0
 29 24  1  0  0  0  0
 29 55  1  0  0  0  0
 29 56  1  0  0  0  0
 30 29  1  0  0  0  0
 30 31  1  0  0  0  0
 30 57  1  0  0  0  0
 30 58  1  0  0  0  0
 31 21  1  0  0  0  0
 31 32  2  0  0  0  0
M  CHG  5   2   1  11  -1  16  -1  26  -1  28   1
M  END
