4c1h_ligand
 OpenBabel08222323353D

 28 28  0  0  1  0  0  0  0  0999 V2000
   13.5050   13.2500   42.0170 O   0  0  0  0  0  0  0  0  0  0  0  0
   12.9420   13.3410   43.0980 C   0  0  0  0  0  0  0  0  0  0  0  0
   13.7400   13.2950   44.3750 C   0  0  1  0  0  0  0  0  0  0  0  0
   14.7720   12.1880   44.3260 C   0  0  0  0  0  0  0  0  0  0  0  0
   14.0450   10.5750   44.1510 S   0  0  0  0  0  0  0  0  0  0  0  0
   14.4240   14.6360   44.5380 C   0  0  0  0  0  0  0  0  0  0  0  0
   11.5330   13.4800   43.1450 N   0  0  0  0  0  0  0  0  0  0  0  0
   10.8580   13.5360   41.9390 C   0  0  2  0  0  0  0  0  0  0  0  0
   11.1150   14.8230   41.1850 C   0  0  0  0  0  0  0  0  0  0  0  0
   10.7820   14.9020   39.9730 O   0  5  0  0  0  0  0  0  0  0  0  0
   11.6530   15.8120   41.7550 O   0  0  0  0  0  0  0  0  0  0  0  0
   10.8140   13.5990   44.3030 C   0  0  0  0  0  0  0  0  0  0  0  0
    9.3610   13.6370   43.8950 C   0  0  0  0  0  0  0  0  0  0  0  0
    9.3740   13.4140   42.3430 C   0  0  0  0  0  0  0  0  0  0  0  0
   13.0641   13.1183   45.2247 H   0  0  0  0  0  0  0  0  0  0  0  0
   15.3563   12.2108   45.2577 H   0  0  0  0  0  0  0  0  0  0  0  0
   15.4393   12.3673   43.4701 H   0  0  0  0  0  0  0  0  0  0  0  0
   14.7746    9.8800   44.1240 H   0  0  0  0  0  0  0  0  0  0  0  0
   13.6660   15.4324   44.5724 H   0  0  0  0  0  0  0  0  0  0  0  0
   15.0992   14.8091   43.6871 H   0  0  0  0  0  0  0  0  0  0  0  0
   15.0036   14.6408   45.4729 H   0  0  0  0  0  0  0  0  0  0  0  0
   11.1528   12.6897   41.3012 H   0  0  0  0  0  0  0  0  0  0  0  0
   11.0870   14.5264   44.8277 H   0  0  0  0  0  0  0  0  0  0  0  0
   11.0032   12.7369   44.9595 H   0  0  0  0  0  0  0  0  0  0  0  0
    8.9145   14.6113   44.1426 H   0  0  0  0  0  0  0  0  0  0  0  0
    8.7968   12.8370   44.3965 H   0  0  0  0  0  0  0  0  0  0  0  0
    8.9849   12.4163   42.0918 H   0  0  0  0  0  0  0  0  0  0  0  0
    8.7702   14.1813   41.8364 H   0  0  0  0  0  0  0  0  0  0  0  0
  1  2  2  0  0  0  0
  2  3  1  0  0  0  0
  2  7  1  0  0  0  0
  3  4  1  0  0  0  0
  3  6  1  0  0  0  0
  3 15  1  1  0  0  0
  4  5  1  0  0  0  0
  4 16  1  0  0  0  0
  4 17  1  0  0  0  0
  5 18  1  0  0  0  0
  6 19  1  0  0  0  0
  6 20  1  0  0  0  0
  6 21  1  0  0  0  0
  7  8  1  0  0  0  0
  7 12  1  0  0  0  0
  8  9  1  0  0  0  0
  8 14  1  0  0  0  0
  8 22  1  6  0  0  0
  9 10  1  0  0  0  0
  9 11  2  0  0  0  0
 12 13  1  0  0  0  0
 12 23  1  0  0  0  0
 12 24  1  0  0  0  0
 13 14  1  0  0  0  0
 13 25  1  0  0  0  0
 13 26  1  0  0  0  0
 14 27  1  0  0  0  0
 14 28  1  0  0  0  0
M  CHG  1  10  -1
M  END
