4c1m_ligand
 OpenBabel08222323353D

 38 39  0  0  1  0  0  0  0  0999 V2000
   26.1450    3.4240   39.5690 N   0  0  0  0  0  0  0  0  0  0  0  0
   26.1370    2.8460   40.7940 C   0  0  1  0  0  3  0  0  0  0  0  0
   26.2290    3.5530   41.8990 N   0  0  0  0  0  0  0  0  0  0  0  0
   26.3260    4.8640   41.8620 C   0  0  0  0  0  0  0  0  0  0  0  0
   26.3260    5.5190   40.6310 C   0  0  0  0  0  0  0  0  0  0  0  0
   26.2240    4.7620   39.4410 C   0  0  0  0  0  0  0  0  0  0  0  0
   26.3870    6.9690   40.5540 C   0  0  0  0  0  0  0  0  0  0  0  0
   26.7310    7.5360   39.3880 N   0  0  0  0  0  0  0  0  0  0  0  0
   26.0630    7.6390   41.5220 O   0  0  0  0  0  0  0  0  0  0  0  0
   26.2090    5.3010   38.3410 O   0  0  0  0  0  0  0  0  0  0  0  0
   26.7610    8.9390   39.2890 O   0  0  0  0  0  0  0  0  0  0  0  0
   26.0090    1.4900   40.8730 N   0  0  0  0  0  0  0  0  0  0  0  0
   26.3500    0.7930   42.1100 C   0  0  0  0  0  0  0  0  0  0  0  0
   25.1950    0.8840   43.0690 C   0  0  0  0  0  0  0  0  0  0  0  0
   23.9940    1.4500   42.6990 C   0  0  0  0  0  0  0  0  0  0  0  0
   22.9380    1.5150   43.6060 C   0  0  0  0  0  0  0  0  0  0  0  0
   23.0790    1.0010   44.8880 C   0  0  0  0  0  0  0  0  0  0  0  0
   24.2940    0.4190   45.2350 C   0  0  0  0  0  0  0  0  0  0  0  0
   25.3420    0.3730   44.3380 C   0  0  0  0  0  0  0  0  0  0  0  0
   24.5580   -0.1450   46.6080 C   0  0  0  0  0  0  0  0  0  0  0  0
   23.4570    0.0400   47.4350 F   0  0  0  0  0  0  0  0  0  0  0  0
   24.8530   -1.5050   46.4820 F   0  0  0  0  0  0  0  0  0  0  0  0
   25.6470    0.5400   47.1680 F   0  0  0  0  0  0  0  0  0  0  0  0
   21.6500    2.1580   43.1470 C   0  0  0  0  0  0  0  0  0  0  0  0
   21.5760    2.1560   41.7520 F   0  0  0  0  0  0  0  0  0  0  0  0
   20.5070    1.5380   43.6400 F   0  0  0  0  0  0  0  0  0  0  0  0
   21.6820    3.4430   43.6200 F   0  0  0  0  0  0  0  0  0  0  0  0
   26.0917    2.8510   38.7512 H   0  0  0  0  0  0  0  0  0  0  0  0
   26.2250    3.0715   42.8095 H   0  0  0  0  0  0  0  0  0  0  0  0
   26.4058    5.4341   42.7864 H   0  0  0  0  0  0  0  0  0  0  0  0
   26.9634    6.9681   38.5984 H   0  0  0  0  0  0  0  0  0  0  0  0
   25.8971    9.2871   39.4760 H   0  0  0  0  0  0  0  0  0  0  0  0
   25.6713    0.9571   40.0588 H   0  0  0  0  0  0  0  0  0  0  0  0
   27.2388    1.2587   42.5607 H   0  0  0  0  0  0  0  0  0  0  0  0
   26.5616   -0.2637   41.8896 H   0  0  0  0  0  0  0  0  0  0  0  0
   23.8703    1.8465   41.6977 H   0  0  0  0  0  0  0  0  0  0  0  0
   22.2634    1.0519   45.6002 H   0  0  0  0  0  0  0  0  0  0  0  0
   26.2865   -0.0683   44.6351 H   0  0  0  0  0  0  0  0  0  0  0  0
  1  2  1  0  0  0  0
  1  6  1  0  0  0  0
  1 28  1  0  0  0  0
  2  3  1  0  0  0  0
  2 12  1  1  0  0  0
  3  4  1  0  0  0  0
  3 29  1  0  0  0  0
  4  5  2  0  0  0  0
  4 30  1  0  0  0  0
  5  6  1  0  0  0  0
  5  7  1  0  0  0  0
  6 10  2  0  0  0  0
  7  8  1  0  0  0  0
  7  9  2  0  0  0  0
  8 11  1  0  0  0  0
  8 31  1  0  0  0  0
 11 32  1  0  0  0  0
 12 13  1  0  0  0  0
 12 33  1  0  0  0  0
 13 14  1  0  0  0  0
 13 34  1  0  0  0  0
 13 35  1  0  0  0  0
 14 15  2  0  0  0  0
 14 19  1  0  0  0  0
 15 16  1  0  0  0  0
 15 36  1  0  0  0  0
 16 17  2  0  0  0  0
 16 24  1  0  0  0  0
 17 18  1  0  0  0  0
 17 37  1  0  0  0  0
 18 19  2  0  0  0  0
 18 20  1  0  0  0  0
 19 38  1  0  0  0  0
 20 21  1  0  0  0  0
 20 22  1  0  0  0  0
 20 23  1  0  0  0  0
 24 25  1  0  0  0  0
 24 26  1  0  0  0  0
 24 27  1  0  0  0  0
M  END
