4c36_ligand
 OpenBabel08222323353D

 32 35  0  0  0  0  0  0  0  0999 V2000
  -26.7090   -9.9010    0.4730 C   0  0  0  0  0  0  0  0  0  0  0  0
  -29.8060  -10.0390   -1.6130 N   0  0  0  0  0  0  0  0  0  0  0  0
  -32.1650  -10.2230   -5.4680 O   0  0  0  0  0  0  0  0  0  0  0  0
  -25.8170   -9.5780   -0.5470 C   0  0  0  0  0  0  0  0  0  0  0  0
  -28.3750   -9.5090   -3.2790 N   0  0  0  0  0  0  0  0  0  0  0  0
  -26.2570   -9.4310   -1.8600 C   0  0  0  0  0  0  0  0  0  0  0  0
  -30.8290  -10.1200   -5.1000 N   0  0  0  0  0  0  0  0  0  0  0  0
  -27.6120   -9.6230   -2.1180 C   0  0  0  0  0  0  0  0  0  0  0  0
  -33.0130  -10.0920   -4.3560 N   0  0  0  0  0  0  0  0  0  0  0  0
  -28.5130   -9.9460   -1.1050 C   0  0  0  0  0  0  0  0  0  0  0  0
  -32.6360   -9.7450   -2.0730 N   0  0  0  0  0  0  0  0  0  0  0  0
  -28.0590  -10.0830    0.2070 C   0  0  0  0  0  0  0  0  0  0  0  0
  -29.6780   -9.7630   -2.8990 C   0  0  0  0  0  0  0  0  0  0  0  0
  -27.8910   -9.0660   -4.6010 C   0  0  0  0  0  0  0  0  0  0  0  0
  -27.5120  -10.2450   -5.4720 C   0  0  0  0  0  0  0  0  0  0  0  0
  -26.1440  -10.8300   -5.3290 C   0  0  0  0  0  0  0  0  0  0  0  0
  -26.4990  -10.0610   -6.5580 C   0  0  0  0  0  0  0  0  0  0  0  0
  -30.8470   -9.9160   -3.7950 C   0  0  0  0  0  0  0  0  0  0  0  0
  -32.2190   -9.9310   -3.3300 C   0  0  0  0  0  0  0  0  0  0  0  0
  -26.3440  -10.0116    1.4877 H   0  0  0  0  0  0  0  0  0  0  0  0
  -24.7671   -9.4393   -0.3157 H   0  0  0  0  0  0  0  0  0  0  0  0
  -25.5668   -9.1753   -2.6558 H   0  0  0  0  0  0  0  0  0  0  0  0
  -31.9491   -9.6252   -1.3149 H   0  0  0  0  0  0  0  0  0  0  0  0
  -33.6441   -9.7215   -1.8630 H   0  0  0  0  0  0  0  0  0  0  0  0
  -28.7496  -10.3277    1.0059 H   0  0  0  0  0  0  0  0  0  0  0  0
  -27.0083   -8.4244   -4.4628 H   0  0  0  0  0  0  0  0  0  0  0  0
  -28.6863   -8.4930   -5.1001 H   0  0  0  0  0  0  0  0  0  0  0  0
  -28.3858  -10.8941   -5.6303 H   0  0  0  0  0  0  0  0  0  0  0  0
  -26.0037  -11.9196   -5.3838 H   0  0  0  0  0  0  0  0  0  0  0  0
  -25.4382  -10.4056   -4.5998 H   0  0  0  0  0  0  0  0  0  0  0  0
  -26.0552   -9.0700   -6.7340 H   0  0  0  0  0  0  0  0  0  0  0  0
  -26.6207  -10.5840   -7.5180 H   0  0  0  0  0  0  0  0  0  0  0  0
  1 20  1  0  0  0  0
  2 10  1  0  0  0  0
  3  9  1  0  0  0  0
  4  1  2  0  0  0  0
  4 21  1  0  0  0  0
  5  8  1  0  0  0  0
  5 14  1  0  0  0  0
  6  4  1  0  0  0  0
  6 22  1  0  0  0  0
  7  3  1  0  0  0  0
  8  6  2  0  0  0  0
  8 10  1  0  0  0  0
  9 19  2  0  0  0  0
 10 12  2  0  0  0  0
 11 23  1  0  0  0  0
 11 24  1  0  0  0  0
 12  1  1  0  0  0  0
 12 25  1  0  0  0  0
 13  2  2  0  0  0  0
 13  5  1  0  0  0  0
 13 18  1  0  0  0  0
 14 15  1  0  0  0  0
 14 26  1  0  0  0  0
 14 27  1  0  0  0  0
 15 16  1  0  0  0  0
 15 17  1  0  0  0  0
 15 28  1  0  0  0  0
 16 17  1  0  0  0  0
 16 29  1  0  0  0  0
 16 30  1  0  0  0  0
 17 31  1  0  0  0  0
 17 32  1  0  0  0  0
 18  7  2  0  0  0  0
 18 19  1  0  0  0  0
 19 11  1  0  0  0  0
M  END
