4c4i_ligand
 OpenBabel08222323353D

 58 61  0  0  0  0  0  0  0  0999 V2000
   -2.0840  -15.7160  -13.9840 C   0  0  0  0  0  0  0  0  0  0  0  0
   -1.8840  -17.0640  -13.5930 N   0  0  0  0  0  0  0  0  0  0  0  0
   -2.7540  -15.3780  -14.9220 O   0  0  0  0  0  0  0  0  0  0  0  0
    0.7590  -16.1280   -6.7800 Cl  0  0  0  0  0  0  0  0  0  0  0  0
   -1.1500  -17.5050  -12.4840 C   0  0  0  0  0  0  0  0  0  0  0  0
    0.9160  -16.9620   -9.5440 N   0  0  0  0  0  0  0  0  0  0  0  0
    2.9900  -11.2190   -7.7960 O   0  0  0  0  0  0  0  0  0  0  0  0
   -0.4520  -16.8050  -11.5100 C   0  0  0  0  0  0  0  0  0  0  0  0
    1.3910  -10.5560   -9.2550 N   0  0  0  0  0  0  0  0  0  0  0  0
   -2.9010  -19.1680  -16.3980 O   0  0  0  0  0  0  0  0  0  0  0  0
    0.1900  -17.6010  -10.5440 C   0  0  0  0  0  0  0  0  0  0  0  0
    0.1560  -18.9770  -10.5180 N   0  0  0  0  0  0  0  0  0  0  0  0
   -1.4350  -14.8260  -13.1900 O   0  0  0  0  0  0  0  0  0  0  0  0
    1.1810  -15.6020   -9.3900 C   0  0  0  0  0  0  0  0  0  0  0  0
   -4.5890  -17.9150  -17.1780 N   0  0  0  0  0  0  0  0  0  0  0  0
    1.4950  -14.7210  -10.4270 C   0  0  0  0  0  0  0  0  0  0  0  0
    1.7790  -13.3980  -10.1450 C   0  0  0  0  0  0  0  0  0  0  0  0
    1.7560  -12.9350   -8.8370 C   0  0  0  0  0  0  0  0  0  0  0  0
    2.1050  -11.5250   -8.5770 C   0  0  0  0  0  0  0  0  0  0  0  0
    1.5640   -9.1330   -8.9220 C   0  0  0  0  0  0  0  0  0  0  0  0
    0.0940  -10.8800   -9.8710 C   0  0  0  0  0  0  0  0  0  0  0  0
    1.4350  -13.7810   -7.7940 C   0  0  0  0  0  0  0  0  0  0  0  0
    1.1550  -15.0920   -8.0920 C   0  0  0  0  0  0  0  0  0  0  0  0
   -0.5290  -19.5990  -11.4720 C   0  0  0  0  0  0  0  0  0  0  0  0
   -1.1980  -18.9170  -12.4770 C   0  0  0  0  0  0  0  0  0  0  0  0
   -1.9730  -19.3410  -13.5930 C   0  0  0  0  0  0  0  0  0  0  0  0
   -2.3830  -18.2260  -14.2650 C   0  0  0  0  0  0  0  0  0  0  0  0
   -3.1680  -18.2130  -15.4580 C   0  0  0  0  0  0  0  0  0  0  0  0
   -4.2040  -17.4310  -15.9170 C   0  0  0  0  0  0  0  0  0  0  0  0
   -3.7850  -18.9440  -17.4140 C   0  0  0  0  0  0  0  0  0  0  0  0
   -1.4250  -13.4240  -13.6100 C   0  0  0  0  0  0  0  0  0  0  0  0
   -0.8420  -13.3540  -15.0020 C   0  0  0  0  0  0  0  0  0  0  0  0
   -0.5780  -12.6590  -12.6200 C   0  0  0  0  0  0  0  0  0  0  0  0
   -2.8590  -12.9480  -13.5900 C   0  0  0  0  0  0  0  0  0  0  0  0
    1.3115  -17.5773   -8.8188 H   0  0  0  0  0  0  0  0  0  0  0  0
   -0.4049  -15.7221  -11.4947 H   0  0  0  0  0  0  0  0  0  0  0  0
    1.5160  -15.0742  -11.4516 H   0  0  0  0  0  0  0  0  0  0  0  0
    2.0217  -12.7165  -10.9523 H   0  0  0  0  0  0  0  0  0  0  0  0
    0.9139   -8.5238   -9.5672 H   0  0  0  0  0  0  0  0  0  0  0  0
    2.6133   -8.8440   -9.0814 H   0  0  0  0  0  0  0  0  0  0  0  0
    1.2941   -8.9675   -7.8686 H   0  0  0  0  0  0  0  0  0  0  0  0
    0.0493  -11.9578  -10.0861 H   0  0  0  0  0  0  0  0  0  0  0  0
   -0.0187  -10.3142  -10.8076 H   0  0  0  0  0  0  0  0  0  0  0  0
   -0.7179  -10.6102   -9.1796 H   0  0  0  0  0  0  0  0  0  0  0  0
    1.4050  -13.4215   -6.7718 H   0  0  0  0  0  0  0  0  0  0  0  0
   -0.5662  -20.6823  -11.4642 H   0  0  0  0  0  0  0  0  0  0  0  0
   -2.1987  -20.3717  -13.8627 H   0  0  0  0  0  0  0  0  0  0  0  0
   -4.6474  -16.5851  -15.3938 H   0  0  0  0  0  0  0  0  0  0  0  0
   -3.8260  -19.5454  -18.3210 H   0  0  0  0  0  0  0  0  0  0  0  0
   -0.8242  -12.3073  -15.3398 H   0  0  0  0  0  0  0  0  0  0  0  0
   -1.4603  -13.9505  -15.6889 H   0  0  0  0  0  0  0  0  0  0  0  0
    0.1830  -13.7531  -14.9908 H   0  0  0  0  0  0  0  0  0  0  0  0
   -0.5484  -11.5973  -12.9062 H   0  0  0  0  0  0  0  0  0  0  0  0
    0.4435  -13.0670  -12.6190 H   0  0  0  0  0  0  0  0  0  0  0  0
   -1.0124  -12.7556  -11.6141 H   0  0  0  0  0  0  0  0  0  0  0  0
   -2.8996  -11.8935  -13.9005 H   0  0  0  0  0  0  0  0  0  0  0  0
   -3.2638  -13.0463  -12.5720 H   0  0  0  0  0  0  0  0  0  0  0  0
   -3.4574  -13.5575  -14.2831 H   0  0  0  0  0  0  0  0  0  0  0  0
  1  3  2  0  0  0  0
  1 13  1  0  0  0  0
  2  1  1  0  0  0  0
  2  5  1  0  0  0  0
  5  8  2  0  0  0  0
  6 14  1  0  0  0  0
  6 35  1  0  0  0  0
  8 11  1  0  0  0  0
  8 36  1  0  0  0  0
  9 20  1  0  0  0  0
  9 21  1  0  0  0  0
 10 30  1  0  0  0  0
 11  6  1  0  0  0  0
 12 11  2  0  0  0  0
 13 31  1  0  0  0  0
 14 16  2  0  0  0  0
 14 23  1  0  0  0  0
 15 29  1  0  0  0  0
 16 17  1  0  0  0  0
 16 37  1  0  0  0  0
 17 18  2  0  0  0  0
 17 38  1  0  0  0  0
 18 19  1  0  0  0  0
 19  7  2  0  0  0  0
 19  9  1  0  0  0  0
 20 39  1  0  0  0  0
 20 40  1  0  0  0  0
 20 41  1  0  0  0  0
 21 42  1  0  0  0  0
 21 43  1  0  0  0  0
 21 44  1  0  0  0  0
 22 18  1  0  0  0  0
 22 45  1  0  0  0  0
 23  4  1  0  0  0  0
 23 22  2  0  0  0  0
 24 12  1  0  0  0  0
 24 46  1  0  0  0  0
 25  5  1  0  0  0  0
 25 24  2  0  0  0  0
 26 25  1  0  0  0  0
 26 47  1  0  0  0  0
 27  2  1  0  0  0  0
 27 26  2  0  0  0  0
 27 28  1  0  0  0  0
 28 10  1  0  0  0  0
 28 29  2  0  0  0  0
 29 48  1  0  0  0  0
 30 15  2  0  0  0  0
 30 49  1  0  0  0  0
 31 32  1  0  0  0  0
 31 33  1  0  0  0  0
 31 34  1  0  0  0  0
 32 50  1  0  0  0  0
 32 51  1  0  0  0  0
 32 52  1  0  0  0  0
 33 53  1  0  0  0  0
 33 54  1  0  0  0  0
 33 55  1  0  0  0  0
 34 56  1  0  0  0  0
 34 57  1  0  0  0  0
 34 58  1  0  0  0  0
M  END
