4c4j_ligand
 OpenBabel08222323353D

 62 66  0  0  0  0  0  0  0  0999 V2000
    4.6010   21.4280   38.3640 C   0  0  0  0  0  0  0  0  0  0  0  0
    4.4090   20.7820   39.6790 N   0  0  0  0  0  0  0  0  0  0  0  0
    1.6930   17.0480   44.1580 O   0  0  0  0  0  0  0  0  0  0  0  0
   -0.3600   19.0560   50.7650 Cl  0  0  0  0  0  0  0  0  0  0  0  0
    4.7690   19.5260   41.4310 C   0  0  0  0  0  0  0  0  0  0  0  0
    5.2480   19.8070   40.1820 N   0  0  0  0  0  0  0  0  0  0  0  0
    3.0960   17.5520   42.4610 O   0  0  0  0  0  0  0  0  0  0  0  0
    3.4030   21.1080   40.5660 C   0  0  0  0  0  0  0  0  0  0  0  0
    0.1130   21.5330   46.5000 N   0  0  0  0  0  0  0  0  0  0  0  0
    3.6030   20.3300   41.7110 C   0  0  0  0  0  0  0  0  0  0  0  0
   -0.6820   19.6460   47.7980 N   0  0  0  0  0  0  0  0  0  0  0  0
    2.7800   20.4160   42.9020 C   0  0  0  0  0  0  0  0  0  0  0  0
   -2.0050   11.9930   48.9600 N   0  0  0  0  0  0  0  0  0  0  0  0
    2.3630   21.5850   43.4720 C   0  0  0  0  0  0  0  0  0  0  0  0
   -2.8260   13.7340   50.1380 N   0  0  0  0  0  0  0  0  0  0  0  0
    1.5870   21.2770   44.6290 C   0  0  0  0  0  0  0  0  0  0  0  0
    2.2790   19.2980   43.6690 N   0  0  0  0  0  0  0  0  0  0  0  0
    0.8540   22.0540   45.5230 C   0  0  0  0  0  0  0  0  0  0  0  0
    0.0880   20.1390   46.6860 C   0  0  0  0  0  0  0  0  0  0  0  0
   -0.9680   18.3000   48.1740 C   0  0  0  0  0  0  0  0  0  0  0  0
   -0.9110   17.9090   49.5780 C   0  0  0  0  0  0  0  0  0  0  0  0
   -1.2050   16.5960   50.0150 C   0  0  0  0  0  0  0  0  0  0  0  0
   -1.5510   15.6540   48.9960 C   0  0  0  0  0  0  0  0  0  0  0  0
   -1.8370   14.2610   49.2300 C   0  0  0  0  0  0  0  0  0  0  0  0
   -1.3440   13.1480   48.5300 C   0  0  0  0  0  0  0  0  0  0  0  0
   -2.8960   12.4210   49.9400 C   0  0  0  0  0  0  0  0  0  0  0  0
   -3.6040   14.5140   51.1020 C   0  0  0  0  0  0  0  0  0  0  0  0
   -1.5910   16.0370   47.6440 C   0  0  0  0  0  0  0  0  0  0  0  0
   -1.3080   17.3060   47.2310 C   0  0  0  0  0  0  0  0  0  0  0  0
    0.8040   19.2350   45.8410 C   0  0  0  0  0  0  0  0  0  0  0  0
    1.5430   19.8320   44.7790 C   0  0  0  0  0  0  0  0  0  0  0  0
    2.4020   17.9220   43.3700 C   0  0  0  0  0  0  0  0  0  0  0  0
    1.7820   15.5740   44.0050 C   0  0  0  0  0  0  0  0  0  0  0  0
    1.3760   15.1130   42.6200 C   0  0  0  0  0  0  0  0  0  0  0  0
    0.7950   15.0870   45.0420 C   0  0  0  0  0  0  0  0  0  0  0  0
    3.1890   15.1270   44.3380 C   0  0  0  0  0  0  0  0  0  0  0  0
    3.8024   22.1660   38.1980 H   0  0  0  0  0  0  0  0  0  0  0  0
    4.5658   20.6653   37.5721 H   0  0  0  0  0  0  0  0  0  0  0  0
    5.5776   21.9337   38.3430 H   0  0  0  0  0  0  0  0  0  0  0  0
    5.2043   18.8001   42.1163 H   0  0  0  0  0  0  0  0  0  0  0  0
    2.6060   21.8324   40.4051 H   0  0  0  0  0  0  0  0  0  0  0  0
   -1.0845   20.3696   48.4106 H   0  0  0  0  0  0  0  0  0  0  0  0
    2.5857   22.5857   43.1045 H   0  0  0  0  0  0  0  0  0  0  0  0
    0.8880   23.1325   45.4190 H   0  0  0  0  0  0  0  0  0  0  0  0
   -1.1700   16.3196   51.0626 H   0  0  0  0  0  0  0  0  0  0  0  0
   -0.5659   13.1794   47.7687 H   0  0  0  0  0  0  0  0  0  0  0  0
   -3.5707   11.7588   50.4806 H   0  0  0  0  0  0  0  0  0  0  0  0
   -3.3215   15.5746   51.0286 H   0  0  0  0  0  0  0  0  0  0  0  0
   -3.3988   14.1495   52.1194 H   0  0  0  0  0  0  0  0  0  0  0  0
   -4.6762   14.4041   50.8824 H   0  0  0  0  0  0  0  0  0  0  0  0
   -1.8572   15.2947   46.9003 H   0  0  0  0  0  0  0  0  0  0  0  0
   -1.3443   17.5518   46.1758 H   0  0  0  0  0  0  0  0  0  0  0  0
    0.7858   18.1626   45.9983 H   0  0  0  0  0  0  0  0  0  0  0  0
    1.4592   14.0178   42.5590 H   0  0  0  0  0  0  0  0  0  0  0  0
    2.0379   15.5732   41.8716 H   0  0  0  0  0  0  0  0  0  0  0  0
    0.3361   15.4131   42.4238 H   0  0  0  0  0  0  0  0  0  0  0  0
    0.7646   13.9875   45.0314 H   0  0  0  0  0  0  0  0  0  0  0  0
   -0.2048   15.4836   44.8114 H   0  0  0  0  0  0  0  0  0  0  0  0
    1.1071   15.4356   46.0375 H   0  0  0  0  0  0  0  0  0  0  0  0
    3.2628   14.0351   44.2268 H   0  0  0  0  0  0  0  0  0  0  0  0
    3.4269   15.4069   45.3748 H   0  0  0  0  0  0  0  0  0  0  0  0
    3.8999   15.6140   43.6544 H   0  0  0  0  0  0  0  0  0  0  0  0
  1 37  1  0  0  0  0
  1 38  1  0  0  0  0
  1 39  1  0  0  0  0
  2  1  1  0  0  0  0
  2  6  1  0  0  0  0
  3 33  1  0  0  0  0
  5  6  2  0  0  0  0
  5 40  1  0  0  0  0
  8  2  1  0  0  0  0
  8 41  1  0  0  0  0
  9 18  2  0  0  0  0
 10  5  1  0  0  0  0
 10  8  2  0  0  0  0
 11 19  1  0  0  0  0
 11 42  1  0  0  0  0
 12 10  1  0  0  0  0
 13 25  1  0  0  0  0
 14 12  2  0  0  0  0
 14 43  1  0  0  0  0
 15 26  1  0  0  0  0
 15 27  1  0  0  0  0
 16 14  1  0  0  0  0
 16 31  2  0  0  0  0
 17 12  1  0  0  0  0
 17 32  1  0  0  0  0
 18 16  1  0  0  0  0
 18 44  1  0  0  0  0
 19  9  1  0  0  0  0
 19 30  2  0  0  0  0
 20 11  1  0  0  0  0
 20 29  1  0  0  0  0
 21  4  1  0  0  0  0
 21 20  2  0  0  0  0
 22 21  1  0  0  0  0
 22 45  1  0  0  0  0
 23 22  2  0  0  0  0
 23 24  1  0  0  0  0
 23 28  1  0  0  0  0
 24 15  1  0  0  0  0
 24 25  2  0  0  0  0
 25 46  1  0  0  0  0
 26 13  2  0  0  0  0
 26 47  1  0  0  0  0
 27 48  1  0  0  0  0
 27 49  1  0  0  0  0
 27 50  1  0  0  0  0
 28 29  2  0  0  0  0
 28 51  1  0  0  0  0
 29 52  1  0  0  0  0
 30 31  1  0  0  0  0
 30 53  1  0  0  0  0
 31 17  1  0  0  0  0
 32  3  1  0  0  0  0
 32  7  2  0  0  0  0
 33 34  1  0  0  0  0
 33 35  1  0  0  0  0
 33 36  1  0  0  0  0
 34 54  1  0  0  0  0
 34 55  1  0  0  0  0
 34 56  1  0  0  0  0
 35 57  1  0  0  0  0
 35 58  1  0  0  0  0
 35 59  1  0  0  0  0
 36 60  1  0  0  0  0
 36 61  1  0  0  0  0
 36 62  1  0  0  0  0
M  END
