4caf_ligand
 OpenBabel08222323353D

 53 57  0  0  0  0  0  0  0  0999 V2000
   25.9950   48.5210   64.0860 C   0  0  0  0  0  0  0  0  0  0  0  0
   26.3550   44.0400   63.0270 N   0  0  0  0  0  0  0  0  0  0  0  0
   24.0900   43.8710   62.8470 O   0  0  0  0  0  0  0  0  0  0  0  0
   22.1310   41.7120   63.1080 S   0  0  0  0  0  0  0  0  0  0  0  0
   24.5780   48.1230   63.7180 C   0  0  0  0  0  0  0  0  0  0  0  0
   25.9540   42.7850   63.5020 N   0  0  0  0  0  0  0  0  0  0  0  0
   25.0100   40.5200   65.4240 O   0  0  0  0  0  0  0  0  0  0  0  0
   24.2200   46.9760   62.8310 C   0  0  0  0  0  0  0  0  0  0  0  0
   27.5190   40.8930   67.7390 N   0  3  0  0  0  0  0  0  0  0  0  0
   25.2250   46.0830   62.1280 C   0  0  0  0  0  0  0  0  0  0  0  0
   22.3090   48.0160   63.5620 N   0  0  0  0  0  0  0  0  0  0  0  0
   25.2400   44.6800   62.6470 C   0  0  0  0  0  0  0  0  0  0  0  0
   23.4210   48.6770   64.1330 N   0  0  0  0  0  0  0  0  0  0  0  0
   24.6460   42.7430   63.2890 C   0  0  0  0  0  0  0  0  0  0  0  0
   23.7060   41.6990   63.6710 C   0  0  0  0  0  0  0  0  0  0  0  0
   23.8460   40.6930   64.7490 C   0  0  0  0  0  0  0  0  0  0  0  0
   24.8390   40.5370   66.8670 C   0  0  0  0  0  0  0  0  0  0  0  0
   25.2640   41.9000   67.4770 C   0  0  0  0  0  0  0  0  0  0  0  0
   26.7920   42.1040   67.3080 C   0  0  0  0  0  0  0  0  0  0  0  0
   27.1300   39.5880   67.2280 C   0  0  0  0  0  0  0  0  0  0  0  0
   25.6420   39.3660   67.4460 C   0  0  0  0  0  0  0  0  0  0  0  0
   22.5990   39.9070   64.9890 C   0  0  0  0  0  0  0  0  0  0  0  0
   22.3140   38.7930   65.8670 C   0  0  0  0  0  0  0  0  0  0  0  0
   21.0040   38.2690   65.8290 C   0  0  0  0  0  0  0  0  0  0  0  0
   19.9970   38.7880   64.9810 C   0  0  0  0  0  0  0  0  0  0  0  0
   20.2540   39.8730   64.0460 C   0  0  0  0  0  0  0  0  0  0  0  0
   21.5660   40.4000   64.0210 C   0  0  0  0  0  0  0  0  0  0  0  0
   22.7350   47.0010   62.7960 C   0  0  0  0  0  0  0  0  0  0  0  0
   21.7970   46.0900   62.0750 C   0  0  0  0  0  0  0  0  0  0  0  0
   25.9689   49.3976   64.7500 H   0  0  0  0  0  0  0  0  0  0  0  0
   26.5550   48.7695   63.1725 H   0  0  0  0  0  0  0  0  0  0  0  0
   26.4884   47.6845   64.6025 H   0  0  0  0  0  0  0  0  0  0  0  0
   27.4386   40.8477   68.7428 H   0  0  0  0  0  0  0  0  0  0  0  0
   28.4850   41.0282   67.4850 H   0  0  0  0  0  0  0  0  0  0  0  0
   26.2279   46.5146   62.2615 H   0  0  0  0  0  0  0  0  0  0  0  0
   24.9772   46.0555   61.0566 H   0  0  0  0  0  0  0  0  0  0  0  0
   21.3232   48.2744   63.7115 H   0  0  0  0  0  0  0  0  0  0  0  0
   23.7750   40.3813   67.0985 H   0  0  0  0  0  0  0  0  0  0  0  0
   25.0109   41.9147   68.5474 H   0  0  0  0  0  0  0  0  0  0  0  0
   24.7291   42.7119   66.9625 H   0  0  0  0  0  0  0  0  0  0  0  0
   27.0168   42.3056   66.2503 H   0  0  0  0  0  0  0  0  0  0  0  0
   27.1144   42.9587   67.9208 H   0  0  0  0  0  0  0  0  0  0  0  0
   27.6960   38.8066   67.7562 H   0  0  0  0  0  0  0  0  0  0  0  0
   27.3519   39.5374   66.1518 H   0  0  0  0  0  0  0  0  0  0  0  0
   25.3371   38.4346   66.9465 H   0  0  0  0  0  0  0  0  0  0  0  0
   25.4412   39.2863   68.5246 H   0  0  0  0  0  0  0  0  0  0  0  0
   23.0713   38.3800   66.5235 H   0  0  0  0  0  0  0  0  0  0  0  0
   20.7592   37.4345   66.4761 H   0  0  0  0  0  0  0  0  0  0  0  0
   19.0009   38.3631   65.0295 H   0  0  0  0  0  0  0  0  0  0  0  0
   19.4754   40.2596   63.3983 H   0  0  0  0  0  0  0  0  0  0  0  0
   22.3733   45.3390   61.5148 H   0  0  0  0  0  0  0  0  0  0  0  0
   21.1814   46.6757   61.3764 H   0  0  0  0  0  0  0  0  0  0  0  0
   21.1453   45.5842   62.8026 H   0  0  0  0  0  0  0  0  0  0  0  0
  1 30  1  0  0  0  0
  1 31  1  0  0  0  0
  1 32  1  0  0  0  0
  2 12  2  0  0  0  0
  3 12  1  0  0  0  0
  4 27  1  0  0  0  0
  5  1  1  0  0  0  0
  5 13  2  0  0  0  0
  6  2  1  0  0  0  0
  7 16  1  0  0  0  0
  8  5  1  0  0  0  0
  8 28  2  0  0  0  0
  9 20  1  0  0  0  0
  9 33  1  0  0  0  0
  9 34  1  0  0  0  0
 10  8  1  0  0  0  0
 10 35  1  0  0  0  0
 10 36  1  0  0  0  0
 11 13  1  0  0  0  0
 11 37  1  0  0  0  0
 12 10  1  0  0  0  0
 14  3  1  0  0  0  0
 14  6  2  0  0  0  0
 15  4  1  0  0  0  0
 15 14  1  0  0  0  0
 16 15  2  0  0  0  0
 16 22  1  0  0  0  0
 17  7  1  0  0  0  0
 17 21  1  0  0  0  0
 17 38  1  0  0  0  0
 18 17  1  0  0  0  0
 18 19  1  0  0  0  0
 18 39  1  0  0  0  0
 18 40  1  0  0  0  0
 19  9  1  0  0  0  0
 19 41  1  0  0  0  0
 19 42  1  0  0  0  0
 20 21  1  0  0  0  0
 20 43  1  0  0  0  0
 20 44  1  0  0  0  0
 21 45  1  0  0  0  0
 21 46  1  0  0  0  0
 22 23  2  0  0  0  0
 22 27  1  0  0  0  0
 23 24  1  0  0  0  0
 23 47  1  0  0  0  0
 24 25  2  0  0  0  0
 24 48  1  0  0  0  0
 25 26  1  0  0  0  0
 25 49  1  0  0  0  0
 26 27  2  0  0  0  0
 26 50  1  0  0  0  0
 28 11  1  0  0  0  0
 28 29  1  0  0  0  0
 29 51  1  0  0  0  0
 29 52  1  0  0  0  0
 29 53  1  0  0  0  0
M  CHG  1   9   1
M  END
