4cbt_ligand
 OpenBabel08222323353D

 42 45  0  0  1  0  0  0  0  0999 V2000
   -0.1740    3.8830  133.6610 F   0  0  0  0  0  0  0  0  0  0  0  0
    0.9760    4.1340  134.2920 C   0  0  0  0  0  0  0  0  0  0  0  0
    2.1880    3.9940  133.6660 C   0  0  0  0  0  0  0  0  0  0  0  0
    3.3650    4.2410  134.2740 N   0  0  0  0  0  0  0  0  0  0  0  0
    1.0060    4.5450  135.6010 C   0  0  0  0  0  0  0  0  0  0  0  0
    2.1520    4.7990  136.2640 N   0  0  0  0  0  0  0  0  0  0  0  0
    3.2980    4.6350  135.5660 C   0  0  0  0  0  0  0  0  0  0  0  0
    4.5560    4.8970  136.2690 C   0  0  0  0  0  0  0  0  0  0  0  0
    5.6510    5.4640  135.6090 C   0  0  0  0  0  0  0  0  0  0  0  0
    6.8350    5.7390  136.2920 C   0  0  0  0  0  0  0  0  0  0  0  0
    4.7010    4.5940  137.6310 C   0  0  0  0  0  0  0  0  0  0  0  0
    5.8980    4.8520  138.3060 C   0  0  0  0  0  0  0  0  0  0  0  0
    6.9890    5.4420  137.6530 C   0  0  0  0  0  0  0  0  0  0  0  0
    8.3090    5.7330  138.3050 C   0  0  1  0  0  0  0  0  0  0  0  0
    8.4950    6.9660  139.1410 C   0  0  2  0  0  0  0  0  0  0  0  0
    9.7130    7.7790  139.0540 C   0  0  0  0  0  0  0  0  0  0  0  0
    9.6540    8.9390  139.7730 N   0  0  0  0  0  0  0  0  0  0  0  0
   10.8020    9.7280  139.8200 O   0  0  0  0  0  0  0  0  0  0  0  0
   10.6830    7.4640  138.3660 O   0  0  0  0  0  0  0  0  0  0  0  0
    8.5430    5.6120  139.8040 C   0  0  2  0  0  0  0  0  0  0  0  0
    9.7970    4.8520  140.1750 C   0  0  0  0  0  0  0  0  0  0  0  0
   10.7380    5.3220  141.0970 C   0  0  0  0  0  0  0  0  0  0  0  0
   10.0360    3.5880  139.5980 C   0  0  0  0  0  0  0  0  0  0  0  0
   11.1830    2.8530  139.8760 C   0  0  0  0  0  0  0  0  0  0  0  0
   12.1140    3.3520  140.7720 C   0  0  0  0  0  0  0  0  0  0  0  0
   11.8830    4.5730  141.3960 C   0  0  0  0  0  0  0  0  0  0  0  0
    2.1999    3.6689  132.6320 H   0  0  0  0  0  0  0  0  0  0  0  0
    0.0658    4.6711  136.1255 H   0  0  0  0  0  0  0  0  0  0  0  0
    5.5782    5.6928  134.5519 H   0  0  0  0  0  0  0  0  0  0  0  0
    7.6592    6.1951  135.7555 H   0  0  0  0  0  0  0  0  0  0  0  0
    3.8705    4.1521  138.1696 H   0  0  0  0  0  0  0  0  0  0  0  0
    5.9839    4.5907  139.3545 H   0  0  0  0  0  0  0  0  0  0  0  0
    9.1095    5.4188  137.6191 H   0  0  0  0  0  0  0  0  0  0  0  0
    7.6351    7.6291  139.3166 H   0  0  0  0  0  0  0  0  0  0  0  0
    8.8176    9.2121  140.2483 H   0  0  0  0  0  0  0  0  0  0  0  0
   11.0407    9.9906  138.9389 H   0  0  0  0  0  0  0  0  0  0  0  0
    7.7344    5.3444  140.5001 H   0  0  0  0  0  0  0  0  0  0  0  0
   10.5793    6.2766  141.5855 H   0  0  0  0  0  0  0  0  0  0  0  0
    9.3016    3.1758  138.9154 H   0  0  0  0  0  0  0  0  0  0  0  0
   11.3476    1.8957  139.3947 H   0  0  0  0  0  0  0  0  0  0  0  0
   13.0181    2.7935  140.9857 H   0  0  0  0  0  0  0  0  0  0  0  0
   12.5960    4.9487  142.1209 H   0  0  0  0  0  0  0  0  0  0  0  0
  1  2  1  0  0  0  0
  2  3  2  0  0  0  0
  2  5  1  0  0  0  0
  3  4  1  0  0  0  0
  3 27  1  0  0  0  0
  4  7  2  0  0  0  0
  5  6  2  0  0  0  0
  5 28  1  0  0  0  0
  6  7  1  0  0  0  0
  7  8  1  0  0  0  0
  8  9  2  0  0  0  0
  8 11  1  0  0  0  0
  9 10  1  0  0  0  0
  9 29  1  0  0  0  0
 10 13  2  0  0  0  0
 10 30  1  0  0  0  0
 11 12  2  0  0  0  0
 11 31  1  0  0  0  0
 12 13  1  0  0  0  0
 12 32  1  0  0  0  0
 13 14  1  0  0  0  0
 14 15  1  0  0  0  0
 14 20  1  0  0  0  0
 14 33  1  6  0  0  0
 15 16  1  0  0  0  0
 15 20  1  0  0  0  0
 15 34  1  1  0  0  0
 16 17  1  0  0  0  0
 16 19  2  0  0  0  0
 17 18  1  0  0  0  0
 17 35  1  0  0  0  0
 18 36  1  0  0  0  0
 20 21  1  0  0  0  0
 20 37  1  1  0  0  0
 21 22  2  0  0  0  0
 21 23  1  0  0  0  0
 22 26  1  0  0  0  0
 22 38  1  0  0  0  0
 23 24  2  0  0  0  0
 23 39  1  0  0  0  0
 24 25  1  0  0  0  0
 24 40  1  0  0  0  0
 25 26  2  0  0  0  0
 25 41  1  0  0  0  0
 26 42  1  0  0  0  0
M  END
