4cdr_ligand
 OpenBabel08222323353D

113113  0  0  1  0  0  0  0  0999 V2000
  175.1930  -49.8030   24.5220 C   0  0  0  0  0  0  0  0  0  0  0  0
  175.9510  -50.1970   25.4290 O   0  0  0  0  0  0  0  0  0  0  0  0
  175.6310  -50.0180   23.0460 C   0  0  0  0  0  0  0  0  0  0  0  0
  173.9440  -49.1770   24.6540 N   0  0  0  0  0  0  0  0  0  0  0  0
  173.1200  -48.7180   25.8690 C   0  0  2  0  0  0  0  0  0  0  0  0
  173.3370  -47.2020   26.2090 C   0  0  0  0  0  0  0  0  0  0  0  0
  172.3960  -46.4960   26.5640 O   0  0  0  0  0  0  0  0  0  0  0  0
  173.0940  -49.6140   27.1840 C   0  0  0  0  0  0  0  0  0  0  0  0
  171.7650  -49.3950   27.9400 C   0  0  0  0  0  0  0  0  0  0  0  0
  174.2700  -49.3900   28.1780 C   0  0  0  0  0  0  0  0  0  0  0  0
  174.5880  -46.7360   26.1290 N   0  0  0  0  0  0  0  0  0  0  0  0
  174.8970  -45.3240   26.3610 C   0  0  2  0  0  0  0  0  0  0  0  0
  175.4940  -44.9310   25.0150 C   0  0  0  0  0  0  0  0  0  0  0  0
  176.5970  -45.3560   24.7040 O   0  0  0  0  0  0  0  0  0  0  0  0
  175.8480  -45.0960   27.5570 C   0  0  2  0  0  0  0  0  0  0  0  0
  176.8680  -44.1760   27.1670 O   0  0  0  0  0  0  0  0  0  0  0  0
  176.4980  -46.4010   28.0420 C   0  0  0  0  0  0  0  0  0  0  0  0
  174.6990  -44.2340   24.1820 N   0  0  0  0  0  0  0  0  0  0  0  0
  175.0420  -43.8120   22.7720 C   0  0  2  0  0  0  0  0  0  0  0  0
  175.9860  -42.7850   22.7190 C   0  0  0  0  0  0  0  0  0  0  0  0
  175.9860  -41.8440   23.5190 O   0  0  0  0  0  0  0  0  0  0  0  0
  173.7320  -43.3740   22.1500 C   0  0  0  0  0  0  0  0  0  0  0  0
  172.8660  -42.9210   23.3370 C   0  0  0  0  0  0  0  0  0  0  0  0
  173.3230  -43.7460   24.5340 C   0  0  0  0  0  0  0  0  0  0  0  0
  176.8550  -42.9240   21.7160 N   0  0  0  0  0  0  0  0  0  0  0  0
  177.9950  -42.0350   21.4610 C   0  0  2  0  0  0  0  0  0  0  0  0
  178.0780  -41.6700   19.9610 C   0  0  0  0  0  0  0  0  0  0  0  0
  177.5070  -42.3660   19.1090 O   0  0  0  0  0  0  0  0  0  0  0  0
  179.1430  -42.9780   21.8450 C   0  0  0  0  0  0  0  0  0  0  0  0
  179.1400  -43.2040   23.3660 C   0  0  0  0  0  0  0  0  0  0  0  0
  180.5300  -42.4960   21.3990 C   0  0  0  0  0  0  0  0  0  0  0  0
  180.5280  -35.4290   20.4760 C   0  0  0  0  0  0  0  0  0  0  0  0
  179.1810  -35.6220   19.7590 C   0  0  0  0  0  0  0  0  0  0  0  0
  179.3470  -36.5770   18.5720 C   0  0  0  0  0  0  0  0  0  0  0  0
  179.2970  -37.9200   19.0660 O   0  0  0  0  0  0  0  0  0  0  0  0
  179.6470  -38.8230   18.0150 C   0  0  0  0  0  0  0  0  0  0  0  0
  179.0350  -40.2230   18.2110 C   0  0  1  0  0  0  0  0  0  0  0  0
  180.0240  -41.2610   17.6520 C   0  0  0  0  0  0  0  0  0  0  0  0
  181.1430  -41.3950   18.1610 O   0  0  0  0  0  0  0  0  0  0  0  0
  178.8230  -40.5880   19.6320 N   0  0  0  0  0  0  0  0  0  0  0  0
  179.5910  -42.0290   16.6430 N   0  0  0  0  0  0  0  0  0  0  0  0
  180.4710  -43.0790   16.0870 C   0  0  2  0  0  0  0  0  0  0  0  0
  180.7160  -42.8100   14.6030 C   0  0  0  0  0  0  0  0  0  0  0  0
  179.8930  -42.1610   13.9690 O   0  0  0  0  0  0  0  0  0  0  0  0
  179.8270  -44.4400   16.3310 C   0  0  2  0  0  0  0  0  0  0  0  0
  178.4620  -44.3210   15.9820 O   0  0  0  0  0  0  0  0  0  0  0  0
  179.9380  -44.8460   17.8210 C   0  0  0  0  0  0  0  0  0  0  0  0
  181.8720  -43.2810   14.0950 N   0  0  0  0  0  0  0  0  0  0  0  0
  182.2910  -43.0360   12.6960 C   0  0  2  0  0  0  0  0  0  0  0  0
  181.4240  -43.7690   11.6780 C   0  0  0  0  0  0  0  0  0  0  0  0
  181.1210  -45.0720   11.9200 O   0  0  0  0  0  0  0  0  0  0  0  0
  183.7510  -43.4360   12.4850 C   0  0  0  0  0  0  0  0  0  0  0  0
  181.0530  -43.0590   10.6080 N   0  0  0  0  0  0  0  0  0  0  0  0
  174.8587  -49.6182   22.3724 H   0  0  0  0  0  0  0  0  0  0  0  0
  175.7626  -51.0933   22.8555 H   0  0  0  0  0  0  0  0  0  0  0  0
  176.5815  -49.4946   22.8656 H   0  0  0  0  0  0  0  0  0  0  0  0
  173.4981  -48.9912   23.7784 H   0  0  0  0  0  0  0  0  0  0  0  0
  172.0842  -48.7756   25.5034 H   0  0  0  0  0  0  0  0  0  0  0  0
  173.1391  -50.6636   26.8580 H   0  0  0  0  0  0  0  0  0  0  0  0
  171.7527  -50.0165   28.8475 H   0  0  0  0  0  0  0  0  0  0  0  0
  170.9230  -49.6773   27.2909 H   0  0  0  0  0  0  0  0  0  0  0  0
  171.6728  -48.3353   28.2201 H   0  0  0  0  0  0  0  0  0  0  0  0
  175.2259  -49.5422   27.6554 H   0  0  0  0  0  0  0  0  0  0  0  0
  174.1887  -50.1056   29.0094 H   0  0  0  0  0  0  0  0  0  0  0  0
  174.2268  -48.3638   28.5718 H   0  0  0  0  0  0  0  0  0  0  0  0
  175.3304  -47.3675   25.9053 H   0  0  0  0  0  0  0  0  0  0  0  0
  173.9744  -44.7555   26.5494 H   0  0  0  0  0  0  0  0  0  0  0  0
  175.2700  -44.6643   28.3874 H   0  0  0  0  0  0  0  0  0  0  0  0
  177.3534  -44.5353   26.4336 H   0  0  0  0  0  0  0  0  0  0  0  0
  177.1632  -46.1857   28.8912 H   0  0  0  0  0  0  0  0  0  0  0  0
  177.0816  -46.8465   27.2229 H   0  0  0  0  0  0  0  0  0  0  0  0
  175.7146  -47.1051   28.3592 H   0  0  0  0  0  0  0  0  0  0  0  0
  175.4433  -44.6762   22.2224 H   0  0  0  0  0  0  0  0  0  0  0  0
  173.2553  -44.2118   21.6200 H   0  0  0  0  0  0  0  0  0  0  0  0
  173.8948  -42.5419   21.4493 H   0  0  0  0  0  0  0  0  0  0  0  0
  171.8027  -43.1093   23.1274 H   0  0  0  0  0  0  0  0  0  0  0  0
  173.0170  -41.8491   23.5324 H   0  0  0  0  0  0  0  0  0  0  0  0
  173.3559  -43.1233   25.4402 H   0  0  0  0  0  0  0  0  0  0  0  0
  172.6437  -44.5956   24.6973 H   0  0  0  0  0  0  0  0  0  0  0  0
  176.7193  -43.6923   21.0904 H   0  0  0  0  0  0  0  0  0  0  0  0
  177.9686  -41.1248   22.0781 H   0  0  0  0  0  0  0  0  0  0  0  0
  178.9554  -43.9430   21.3514 H   0  0  0  0  0  0  0  0  0  0  0  0
  179.9639  -43.8802   23.6378 H   0  0  0  0  0  0  0  0  0  0  0  0
  178.1823  -43.6530   23.6681 H   0  0  0  0  0  0  0  0  0  0  0  0
  179.2717  -42.2405   23.8801 H   0  0  0  0  0  0  0  0  0  0  0  0
  180.5298  -42.3350   20.3108 H   0  0  0  0  0  0  0  0  0  0  0  0
  181.2827  -43.2555   21.6571 H   0  0  0  0  0  0  0  0  0  0  0  0
  180.7717  -41.5520   21.9092 H   0  0  0  0  0  0  0  0  0  0  0  0
  180.3962  -34.7423   21.3252 H   0  0  0  0  0  0  0  0  0  0  0  0
  181.2605  -35.0060   19.7727 H   0  0  0  0  0  0  0  0  0  0  0  0
  180.8906  -36.4005   20.8429 H   0  0  0  0  0  0  0  0  0  0  0  0
  178.8201  -34.6488   19.3949 H   0  0  0  0  0  0  0  0  0  0  0  0
  178.4503  -36.0432   20.4651 H   0  0  0  0  0  0  0  0  0  0  0  0
  180.3151  -36.3967   18.0819 H   0  0  0  0  0  0  0  0  0  0  0  0
  178.5341  -36.4162   17.8485 H   0  0  0  0  0  0  0  0  0  0  0  0
  180.7423  -38.9185   17.9822 H   0  0  0  0  0  0  0  0  0  0  0  0
  179.2861  -38.4108   17.0611 H   0  0  0  0  0  0  0  0  0  0  0  0
  178.0767  -40.2734   17.6734 H   0  0  0  0  0  0  0  0  0  0  0  0
  179.2335  -40.0306   20.3537 H   0  0  0  0  0  0  0  0  0  0  0  0
  178.6746  -41.8923   16.2668 H   0  0  0  0  0  0  0  0  0  0  0  0
  181.4388  -43.0512   16.6091 H   0  0  0  0  0  0  0  0  0  0  0  0
  180.3148  -45.2025   15.7060 H   0  0  0  0  0  0  0  0  0  0  0  0
  178.0268  -45.1538   16.1218 H   0  0  0  0  0  0  0  0  0  0  0  0
  179.4669  -45.8289   17.9692 H   0  0  0  0  0  0  0  0  0  0  0  0
  179.4274  -44.0970   18.4442 H   0  0  0  0  0  0  0  0  0  0  0  0
  180.9984  -44.9006   18.1082 H   0  0  0  0  0  0  0  0  0  0  0  0
  182.4719  -43.8185   14.6876 H   0  0  0  0  0  0  0  0  0  0  0  0
  182.1971  -41.9566   12.5059 H   0  0  0  0  0  0  0  0  0  0  0  0
  184.0363  -43.2444   11.4401 H   0  0  0  0  0  0  0  0  0  0  0  0
  183.8740  -44.5060   12.7083 H   0  0  0  0  0  0  0  0  0  0  0  0
  184.3935  -42.8454   13.1547 H   0  0  0  0  0  0  0  0  0  0  0  0
  180.4836  -43.4796    9.9017 H   0  0  0  0  0  0  0  0  0  0  0  0
  181.3449  -42.1072   10.5138 H   0  0  0  0  0  0  0  0  0  0  0  0
  1  2  2  0  0  0  0
  1  3  1  0  0  0  0
  3 54  1  0  0  0  0
  3 55  1  0  0  0  0
  3 56  1  0  0  0  0
  4  1  1  0  0  0  0
  4 57  1  0  0  0  0
  5  4  1  0  0  0  0
  5  8  1  0  0  0  0
  5 58  1  6  0  0  0
  6  5  1  0  0  0  0
  6  7  2  0  0  0  0
  8  9  1  0  0  0  0
  8 10  1  0  0  0  0
  8 59  1  0  0  0  0
  9 60  1  0  0  0  0
  9 61  1  0  0  0  0
  9 62  1  0  0  0  0
 10 63  1  0  0  0  0
 10 64  1  0  0  0  0
 10 65  1  0  0  0  0
 11  6  1  0  0  0  0
 11 66  1  0  0  0  0
 12 11  1  0  0  0  0
 12 15  1  0  0  0  0
 12 67  1  1  0  0  0
 13 12  1  0  0  0  0
 13 14  2  0  0  0  0
 15 16  1  0  0  0  0
 15 17  1  0  0  0  0
 15 68  1  1  0  0  0
 16 69  1  0  0  0  0
 17 70  1  0  0  0  0
 17 71  1  0  0  0  0
 17 72  1  0  0  0  0
 18 13  1  0  0  0  0
 18 24  1  0  0  0  0
 19 18  1  0  0  0  0
 19 22  1  0  0  0  0
 19 73  1  6  0  0  0
 20 19  1  0  0  0  0
 20 21  2  0  0  0  0
 22 23  1  0  0  0  0
 22 74  1  0  0  0  0
 22 75  1  0  0  0  0
 23 24  1  0  0  0  0
 23 76  1  0  0  0  0
 23 77  1  0  0  0  0
 24 78  1  0  0  0  0
 24 79  1  0  0  0  0
 25 20  1  0  0  0  0
 25 80  1  0  0  0  0
 26 25  1  0  0  0  0
 26 29  1  0  0  0  0
 26 81  1  1  0  0  0
 27 26  1  0  0  0  0
 27 28  2  0  0  0  0
 29 30  1  0  0  0  0
 29 31  1  0  0  0  0
 29 82  1  0  0  0  0
 30 83  1  0  0  0  0
 30 84  1  0  0  0  0
 30 85  1  0  0  0  0
 31 86  1  0  0  0  0
 31 87  1  0  0  0  0
 31 88  1  0  0  0  0
 32 89  1  0  0  0  0
 32 90  1  0  0  0  0
 32 91  1  0  0  0  0
 33 32  1  0  0  0  0
 33 92  1  0  0  0  0
 33 93  1  0  0  0  0
 34 33  1  0  0  0  0
 34 94  1  0  0  0  0
 34 95  1  0  0  0  0
 35 34  1  0  0  0  0
 36 35  1  0  0  0  0
 36 96  1  0  0  0  0
 36 97  1  0  0  0  0
 37 36  1  0  0  0  0
 37 38  1  0  0  0  0
 37 40  1  0  0  0  0
 37 98  1  6  0  0  0
 38 39  2  0  0  0  0
 38 41  1  0  0  0  0
 40 27  1  0  0  0  0
 40 99  1  0  0  0  0
 41 42  1  0  0  0  0
 41100  1  0  0  0  0
 42 43  1  0  0  0  0
 42 45  1  0  0  0  0
 42101  1  1  0  0  0
 43 44  2  0  0  0  0
 43 48  1  0  0  0  0
 45 46  1  0  0  0  0
 45 47  1  0  0  0  0
 45102  1  6  0  0  0
 46103  1  0  0  0  0
 47104  1  0  0  0  0
 47105  1  0  0  0  0
 47106  1  0  0  0  0
 48 49  1  0  0  0  0
 48107  1  0  0  0  0
 49 50  1  0  0  0  0
 49 52  1  0  0  0  0
 49108  1  6  0  0  0
 50 51  2  0  0  0  0
 50 53  1  0  0  0  0
 52109  1  0  0  0  0
 52110  1  0  0  0  0
 52111  1  0  0  0  0
 53112  1  0  0  0  0
 53113  1  0  0  0  0
M  END
