4ce2_ligand
 OpenBabel08222323353D

 49 50  0  0  0  0  0  0  0  0999 V2000
   19.9770   -2.0660   -6.4070 O   0  0  0  0  0  0  0  0  0  0  0  0
   19.0240   -2.7650   -6.1270 C   0  0  0  0  0  0  0  0  0  0  0  0
   17.9210   -2.8350   -6.8980 N   0  0  0  0  0  0  0  0  0  0  0  0
   16.8340   -3.7860   -6.6380 C   0  0  0  0  0  0  0  0  0  0  0  0
   19.1380   -3.6220   -4.8830 C   0  0  0  0  0  0  0  0  0  0  0  0
   20.1060   -4.6690   -4.9100 C   0  0  0  0  0  0  0  0  0  0  0  0
   20.9270   -4.8390   -5.9880 O   0  0  0  0  0  0  0  0  0  0  0  0
   20.2250   -5.5520   -3.8470 C   0  0  0  0  0  0  0  0  0  0  0  0
   19.4020   -5.4290   -2.7440 C   0  0  0  0  0  0  0  0  0  0  0  0
   19.4430   -6.3140   -1.7030 O   0  0  0  0  0  0  0  0  0  0  0  0
   18.4890   -4.4110   -2.7000 C   0  0  0  0  0  0  0  0  0  0  0  0
   17.4910   -4.3360   -1.3010 Cl  0  0  0  0  0  0  0  0  0  0  0  0
   18.3230   -3.4890   -3.7320 C   0  0  0  0  0  0  0  0  0  0  0  0
   17.2850   -2.4070   -3.5170 C   0  0  0  0  0  0  0  0  0  0  0  0
   15.8830   -2.9460   -3.3270 C   0  0  0  0  0  0  0  0  0  0  0  0
   15.5750   -4.0310   -3.7700 O   0  0  0  0  0  0  0  0  0  0  0  0
   14.9070   -2.1090   -2.5410 C   0  0  0  0  0  0  0  0  0  0  0  0
   13.5870   -1.8270   -3.2270 C   0  0  0  0  0  0  0  0  0  0  0  0
   13.7250   -0.8540   -4.3710 C   0  0  0  0  0  0  0  0  0  0  0  0
   13.0070   -1.2800   -5.6550 C   0  0  0  0  0  0  0  0  0  0  0  0
   13.2570   -0.3480   -6.8420 C   0  0  0  0  0  0  0  0  0  0  0  0
   14.7280   -0.1810   -7.0150 C   0  0  0  0  0  0  0  0  0  0  0  0
   15.5120   -0.9380   -7.7080 C   0  0  0  0  0  0  0  0  0  0  0  0
   16.9750   -0.7610   -7.8150 C   0  0  0  0  0  0  0  0  0  0  0  0
   17.7960   -2.0160   -8.1060 C   0  0  0  0  0  0  0  0  0  0  0  0
   16.0460   -3.6579   -7.3947 H   0  0  0  0  0  0  0  0  0  0  0  0
   16.4155   -3.6001   -5.6378 H   0  0  0  0  0  0  0  0  0  0  0  0
   17.2256   -4.8128   -6.6866 H   0  0  0  0  0  0  0  0  0  0  0  0
   21.5028   -5.5785   -5.8326 H   0  0  0  0  0  0  0  0  0  0  0  0
   20.9667   -6.3418   -3.8817 H   0  0  0  0  0  0  0  0  0  0  0  0
   19.2402   -7.1857   -2.0217 H   0  0  0  0  0  0  0  0  0  0  0  0
   17.2871   -1.7430   -4.3940 H   0  0  0  0  0  0  0  0  0  0  0  0
   17.5615   -1.8320   -2.6210 H   0  0  0  0  0  0  0  0  0  0  0  0
   15.3878   -1.1441   -2.3224 H   0  0  0  0  0  0  0  0  0  0  0  0
   14.6932   -2.6340   -1.5983 H   0  0  0  0  0  0  0  0  0  0  0  0
   12.8889   -1.4059   -2.4885 H   0  0  0  0  0  0  0  0  0  0  0  0
   13.1827   -2.7732   -3.6160 H   0  0  0  0  0  0  0  0  0  0  0  0
   14.7953   -0.7390   -4.5975 H   0  0  0  0  0  0  0  0  0  0  0  0
   13.3119    0.1139   -4.0510 H   0  0  0  0  0  0  0  0  0  0  0  0
   11.9255   -1.3046   -5.4555 H   0  0  0  0  0  0  0  0  0  0  0  0
   13.3527   -2.2882   -5.9272 H   0  0  0  0  0  0  0  0  0  0  0  0
   12.7934    0.6306   -6.6487 H   0  0  0  0  0  0  0  0  0  0  0  0
   12.8241   -0.7852   -7.7538 H   0  0  0  0  0  0  0  0  0  0  0  0
   15.1880    0.6645   -6.5057 H   0  0  0  0  0  0  0  0  0  0  0  0
   15.0623   -1.7667   -8.2529 H   0  0  0  0  0  0  0  0  0  0  0  0
   17.3312   -0.3427   -6.8621 H   0  0  0  0  0  0  0  0  0  0  0  0
   17.1659   -0.0420   -8.6253 H   0  0  0  0  0  0  0  0  0  0  0  0
   17.2963   -2.6021   -8.8913 H   0  0  0  0  0  0  0  0  0  0  0  0
   18.7985   -1.7217   -8.4499 H   0  0  0  0  0  0  0  0  0  0  0  0
  1  2  2  0  0  0  0
  2  3  1  0  0  0  0
  2  5  1  0  0  0  0
  3  4  1  0  0  0  0
  3 25  1  0  0  0  0
  4 26  1  0  0  0  0
  4 27  1  0  0  0  0
  4 28  1  0  0  0  0
  5  6  2  0  0  0  0
  5 13  1  0  0  0  0
  6  7  1  0  0  0  0
  6  8  1  0  0  0  0
  7 29  1  0  0  0  0
  8  9  2  0  0  0  0
  8 30  1  0  0  0  0
  9 10  1  0  0  0  0
  9 11  1  0  0  0  0
 10 31  1  0  0  0  0
 11 12  1  0  0  0  0
 11 13  2  0  0  0  0
 13 14  1  0  0  0  0
 14 15  1  0  0  0  0
 14 32  1  0  0  0  0
 14 33  1  0  0  0  0
 15 16  2  0  0  0  0
 15 17  1  0  0  0  0
 17 18  1  0  0  0  0
 17 34  1  0  0  0  0
 17 35  1  0  0  0  0
 18 19  1  0  0  0  0
 18 36  1  0  0  0  0
 18 37  1  0  0  0  0
 19 20  1  0  0  0  0
 19 38  1  0  0  0  0
 19 39  1  0  0  0  0
 20 21  1  0  0  0  0
 20 40  1  0  0  0  0
 20 41  1  0  0  0  0
 21 22  1  0  0  0  0
 21 42  1  0  0  0  0
 21 43  1  0  0  0  0
 22 23  2  0  0  0  0
 22 44  1  0  0  0  0
 23 24  1  0  0  0  0
 23 45  1  0  0  0  0
 24 25  1  0  0  0  0
 24 46  1  0  0  0  0
 24 47  1  0  0  0  0
 25 48  1  0  0  0  0
 25 49  1  0  0  0  0
M  END
