4ce3_ligand
 OpenBabel08222323353D

 46 47  0  0  0  0  0  0  0  0999 V2000
   18.9440   -2.5540   -6.1100 C   0  0  0  0  0  0  0  0  0  0  0  0
   19.0140   -3.4650   -4.9000 C   0  0  0  0  0  0  0  0  0  0  0  0
   19.8930   -4.5750   -4.8780 C   0  0  0  0  0  0  0  0  0  0  0  0
   19.9290   -5.4450   -3.8030 C   0  0  0  0  0  0  0  0  0  0  0  0
   19.1110   -5.2270   -2.7120 C   0  0  0  0  0  0  0  0  0  0  0  0
   18.2730   -4.1340   -2.7080 C   0  0  0  0  0  0  0  0  0  0  0  0
   18.1830   -3.2420   -3.7740 C   0  0  0  0  0  0  0  0  0  0  0  0
   17.1720   -2.1150   -3.6950 C   0  0  0  0  0  0  0  0  0  0  0  0
   15.7290   -2.5730   -3.7930 C   0  0  0  0  0  0  0  0  0  0  0  0
   14.6450   -1.7130   -3.1990 C   0  0  0  0  0  0  0  0  0  0  0  0
   14.0610   -0.6730   -4.1430 C   0  0  0  0  0  0  0  0  0  0  0  0
   13.1670   -1.2460   -5.2390 C   0  0  0  0  0  0  0  0  0  0  0  0
   13.0250   -0.2710   -6.3790 C   0  0  0  0  0  0  0  0  0  0  0  0
   13.7950   -0.1580   -7.4610 C   0  0  0  0  0  0  0  0  0  0  0  0
   14.9880   -0.9980   -7.8520 C   0  0  0  0  0  0  0  0  0  0  0  0
   16.3090   -0.6530   -7.1490 C   0  0  0  0  0  0  0  0  0  0  0  0
   17.0560   -3.8130   -7.0700 C   0  0  0  0  0  0  0  0  0  0  0  0
   19.9050   -1.8310   -6.3250 O   0  0  0  0  0  0  0  0  0  0  0  0
   20.7650   -4.7840   -5.8860 O   0  0  0  0  0  0  0  0  0  0  0  0
   19.0890   -6.1000   -1.6750 O   0  0  0  0  0  0  0  0  0  0  0  0
   17.3230   -3.9120   -1.2940 Cl  0  0  0  0  0  0  0  0  0  0  0  0
   17.4710   -1.4530   -7.7300 C   0  0  0  0  0  0  0  0  0  0  0  0
   15.4560   -3.6280   -4.3220 O   0  0  0  0  0  0  0  0  0  0  0  0
   17.8710   -2.6070   -6.9230 N   0  0  0  0  0  0  0  0  0  0  0  0
   20.5988   -6.2972   -3.8171 H   0  0  0  0  0  0  0  0  0  0  0  0
   17.3694   -1.4146   -4.5199 H   0  0  0  0  0  0  0  0  0  0  0  0
   17.3059   -1.5968   -2.7340 H   0  0  0  0  0  0  0  0  0  0  0  0
   15.0649   -1.1868   -2.3290 H   0  0  0  0  0  0  0  0  0  0  0  0
   13.8282   -2.3721   -2.8698 H   0  0  0  0  0  0  0  0  0  0  0  0
   14.8938   -0.1384   -4.6232 H   0  0  0  0  0  0  0  0  0  0  0  0
   13.4650    0.0349   -3.5484 H   0  0  0  0  0  0  0  0  0  0  0  0
   12.1724   -1.4571   -4.8193 H   0  0  0  0  0  0  0  0  0  0  0  0
   13.6116   -2.1789   -5.6159 H   0  0  0  0  0  0  0  0  0  0  0  0
   12.1915    0.4265   -6.3105 H   0  0  0  0  0  0  0  0  0  0  0  0
   13.5304    0.6418   -8.1511 H   0  0  0  0  0  0  0  0  0  0  0  0
   15.1420   -0.8818   -8.9349 H   0  0  0  0  0  0  0  0  0  0  0  0
   14.7499   -2.0479   -7.6260 H   0  0  0  0  0  0  0  0  0  0  0  0
   16.2156   -0.8834   -6.0775 H   0  0  0  0  0  0  0  0  0  0  0  0
   16.5134    0.4202   -7.2769 H   0  0  0  0  0  0  0  0  0  0  0  0
   16.2403   -3.6197   -7.7823 H   0  0  0  0  0  0  0  0  0  0  0  0
   16.6321   -4.0904   -6.0936 H   0  0  0  0  0  0  0  0  0  0  0  0
   17.6827   -4.6357   -7.4447 H   0  0  0  0  0  0  0  0  0  0  0  0
   21.6526   -4.7303   -5.5516 H   0  0  0  0  0  0  0  0  0  0  0  0
   19.7213   -6.7915   -1.8312 H   0  0  0  0  0  0  0  0  0  0  0  0
   18.3376   -0.7822   -7.8251 H   0  0  0  0  0  0  0  0  0  0  0  0
   17.1762   -1.8148   -8.7261 H   0  0  0  0  0  0  0  0  0  0  0  0
  1  2  1  0  0  0  0
  1 18  2  0  0  0  0
  1 24  1  0  0  0  0
  2  3  2  0  0  0  0
  2  7  1  0  0  0  0
  3  4  1  0  0  0  0
  3 19  1  0  0  0  0
  4  5  2  0  0  0  0
  4 25  1  0  0  0  0
  5  6  1  0  0  0  0
  5 20  1  0  0  0  0
  6  7  2  0  0  0  0
  6 21  1  0  0  0  0
  7  8  1  0  0  0  0
  8  9  1  0  0  0  0
  8 26  1  0  0  0  0
  8 27  1  0  0  0  0
  9 10  1  0  0  0  0
  9 23  2  0  0  0  0
 10 11  1  0  0  0  0
 10 28  1  0  0  0  0
 10 29  1  0  0  0  0
 11 12  1  0  0  0  0
 11 30  1  0  0  0  0
 11 31  1  0  0  0  0
 12 13  1  0  0  0  0
 12 32  1  0  0  0  0
 12 33  1  0  0  0  0
 13 14  2  0  0  0  0
 13 34  1  0  0  0  0
 14 15  1  0  0  0  0
 14 35  1  0  0  0  0
 15 16  1  0  0  0  0
 15 36  1  0  0  0  0
 15 37  1  0  0  0  0
 16 22  1  0  0  0  0
 16 38  1  0  0  0  0
 16 39  1  0  0  0  0
 17 40  1  0  0  0  0
 17 41  1  0  0  0  0
 17 42  1  0  0  0  0
 19 43  1  0  0  0  0
 20 44  1  0  0  0  0
 22 24  1  0  0  0  0
 22 45  1  0  0  0  0
 22 46  1  0  0  0  0
 24 17  1  0  0  0  0
M  END
