4cfe_ligand
 OpenBabel08222323353D

 48 52  0  0  0  0  0  0  0  0999 V2000
  511.4860   45.8110 1051.4520 C   0  0  0  0  0  0  0  0  0  0  0  0
  512.5260   45.6400 1050.5010 C   0  0  0  0  0  0  0  0  0  0  0  0
  510.3600   44.9360 1051.4700 C   0  0  0  0  0  0  0  0  0  0  0  0
  509.5620   45.3840 1052.4950 N   0  0  0  0  0  0  0  0  0  0  0  0
  510.2950   43.8960 1050.5330 C   0  0  0  0  0  0  0  0  0  0  0  0
  511.3370   43.7440 1049.6100 C   0  0  0  0  0  0  0  0  0  0  0  0
  512.4330   44.5860 1049.5820 C   0  0  0  0  0  0  0  0  0  0  0  0
  508.2980   44.7730 1052.8669 C   0  0  0  0  0  0  0  0  0  0  0  0
  513.5010   44.3400 1048.5420 C   0  0  0  0  0  0  0  0  0  0  0  0
  514.8260   44.0270 1048.9110 C   0  0  0  0  0  0  0  0  0  0  0  0
  515.7950   43.7950 1047.9160 C   0  0  0  0  0  0  0  0  0  0  0  0
  515.4510   43.8630 1046.5640 C   0  0  0  0  0  0  0  0  0  0  0  0
  514.1070   44.1740 1046.1980 C   0  0  0  0  0  0  0  0  0  0  0  0
  513.1580   44.4050 1047.1870 C   0  0  0  0  0  0  0  0  0  0  0  0
  516.1530   43.6910 1045.3970 N   0  0  0  0  0  0  0  0  0  0  0  0
  514.0450   44.1780 1044.8110 N   0  0  0  0  0  0  0  0  0  0  0  0
  515.2700   43.8910 1044.4260 C   0  0  0  0  0  0  0  0  0  0  0  0
  515.6380   43.7910 1043.0740 O   0  0  0  0  0  0  0  0  0  0  0  0
  514.8140   44.5710 1042.2419 C   0  0  0  0  0  0  0  0  0  0  0  0
  515.0810   45.8970 1042.0551 C   0  0  0  0  0  0  0  0  0  0  0  0
  514.2870   46.6710 1041.2340 C   0  0  0  0  0  0  0  0  0  0  0  0
  513.1790   46.1100 1040.5630 C   0  0  0  0  0  0  0  0  0  0  0  0
  512.8980   44.7170 1040.7531 C   0  0  0  0  0  0  0  0  0  0  0  0
  513.7350   43.9740 1041.5959 C   0  0  0  0  0  0  0  0  0  0  0  0
  512.3080   46.9600 1039.6639 C   0  0  0  0  0  0  0  0  0  0  0  0
  515.2790   43.9370 1050.5840 Cl  0  0  0  0  0  0  0  0  0  0  0  0
  511.2990   46.7570 1052.4860 C   0  0  0  0  0  0  0  0  0  0  0  0
  510.0940   46.4370 1053.0920 C   0  0  0  0  0  0  0  0  0  0  0  0
  511.7540   44.0740 1040.0790 C   0  0  0  0  0  0  0  0  0  0  0  0
  510.6400   43.9820 1040.6720 O   0  5  0  0  0  0  0  0  0  0  0  0
  511.8910   43.6220 1038.9270 O   0  0  0  0  0  0  0  0  0  0  0  0
  513.3763   46.3122 1050.4858 H   0  0  0  0  0  0  0  0  0  0  0  0
  509.4492   43.2181 1050.5228 H   0  0  0  0  0  0  0  0  0  0  0  0
  511.2821   42.9354 1048.8901 H   0  0  0  0  0  0  0  0  0  0  0  0
  507.8613   45.3210 1053.7148 H   0  0  0  0  0  0  0  0  0  0  0  0
  508.4681   43.7254 1053.1559 H   0  0  0  0  0  0  0  0  0  0  0  0
  507.6072   44.8099 1052.0117 H   0  0  0  0  0  0  0  0  0  0  0  0
  516.8146   43.5621 1048.2012 H   0  0  0  0  0  0  0  0  0  0  0  0
  512.1379   44.6388 1046.9045 H   0  0  0  0  0  0  0  0  0  0  0  0
  513.2244   44.3639 1044.2169 H   0  0  0  0  0  0  0  0  0  0  0  0
  515.9284   46.3478 1042.5588 H   0  0  0  0  0  0  0  0  0  0  0  0
  514.5167   47.7222 1041.1025 H   0  0  0  0  0  0  0  0  0  0  0  0
  513.5395   42.9186 1041.7472 H   0  0  0  0  0  0  0  0  0  0  0  0
  512.6892   47.9918 1039.6531 H   0  0  0  0  0  0  0  0  0  0  0  0
  511.2752   46.9547 1040.0424 H   0  0  0  0  0  0  0  0  0  0  0  0
  512.3265   46.5516 1038.6427 H   0  0  0  0  0  0  0  0  0  0  0  0
  511.9679   47.5738 1052.7531 H   0  0  0  0  0  0  0  0  0  0  0  0
  509.6527   46.9715 1053.9319 H   0  0  0  0  0  0  0  0  0  0  0  0
  1  2  2  0  0  0  0
  1  3  1  0  0  0  0
  1 27  1  0  0  0  0
  2  7  1  0  0  0  0
  2 32  1  0  0  0  0
  3  4  1  0  0  0  0
  3  5  2  0  0  0  0
  4  8  1  0  0  0  0
  4 28  1  0  0  0  0
  5  6  1  0  0  0  0
  5 33  1  0  0  0  0
  6  7  2  0  0  0  0
  6 34  1  0  0  0  0
  7  9  1  0  0  0  0
  8 35  1  0  0  0  0
  8 36  1  0  0  0  0
  8 37  1  0  0  0  0
  9 10  2  0  0  0  0
  9 14  1  0  0  0  0
 10 11  1  0  0  0  0
 10 26  1  0  0  0  0
 11 12  2  0  0  0  0
 11 38  1  0  0  0  0
 12 13  1  0  0  0  0
 12 15  1  0  0  0  0
 13 14  2  0  0  0  0
 13 16  1  0  0  0  0
 14 39  1  0  0  0  0
 15 17  2  0  0  0  0
 16 17  1  0  0  0  0
 16 40  1  0  0  0  0
 17 18  1  0  0  0  0
 18 19  1  0  0  0  0
 19 20  2  0  0  0  0
 19 24  1  0  0  0  0
 20 21  1  0  0  0  0
 20 41  1  0  0  0  0
 21 22  2  0  0  0  0
 21 42  1  0  0  0  0
 22 23  1  0  0  0  0
 22 25  1  0  0  0  0
 23 24  2  0  0  0  0
 23 29  1  0  0  0  0
 24 43  1  0  0  0  0
 25 44  1  0  0  0  0
 25 45  1  0  0  0  0
 25 46  1  0  0  0  0
 27 28  2  0  0  0  0
 27 47  1  0  0  0  0
 28 48  1  0  0  0  0
 29 30  1  0  0  0  0
 29 31  2  0  0  0  0
M  CHG  1  30  -1
M  END
