4cfm_ligand
 OpenBabel08222323353D

 48 51  0  0  0  0  0  0  0  0999 V2000
   -4.7020  -20.3020   21.0160 C   0  0  0  0  0  0  0  0  0  0  0  0
   -3.8310  -19.7980   19.9450 C   0  0  0  0  0  0  0  0  0  0  0  0
   -3.1670  -20.9960   19.2670 C   0  0  0  0  0  0  0  0  0  0  0  0
   -4.2360  -21.7330   18.5010 C   0  0  0  0  0  0  0  0  0  0  0  0
   -5.2530  -22.2920   19.4680 C   0  0  0  0  0  0  0  0  0  0  0  0
   -5.7840  -21.2440   20.4780 C   0  0  0  0  0  0  0  0  0  0  0  0
   -6.2660  -22.0550   21.6280 C   0  0  0  0  0  0  0  0  0  0  0  0
   -7.0010  -21.2280   22.4980 O   0  0  0  0  0  0  0  0  0  0  0  0
   -7.8920  -21.9750   23.2330 C   0  0  0  0  0  0  0  0  0  0  0  0
   -9.1910  -21.6400   23.2160 N   0  0  0  0  0  0  0  0  0  0  0  0
  -10.0550  -22.3580   23.9410 C   0  0  0  0  0  0  0  0  0  0  0  0
  -11.3340  -22.0480   23.9390 N   0  0  0  0  0  0  0  0  0  0  0  0
   -9.6420  -23.3980   24.6710 N   0  0  0  0  0  0  0  0  0  0  0  0
   -8.3610  -23.7320   24.6920 C   0  0  0  0  0  0  0  0  0  0  0  0
   -7.7600  -24.7140   25.3390 N   0  0  0  0  0  0  0  0  0  0  0  0
   -7.4660  -23.0310   23.9770 C   0  0  0  0  0  0  0  0  0  0  0  0
   -6.2760  -23.6010   24.1930 N   0  0  0  0  0  0  0  0  0  0  0  0
   -6.4760  -24.6400   25.0260 C   0  0  0  0  0  0  0  0  0  0  0  0
   -5.5330  -25.4880   25.4950 C   0  0  0  0  0  0  0  0  0  0  0  0
   -5.5720  -25.9080   26.8340 C   0  0  0  0  0  0  0  0  0  0  0  0
   -4.6040  -26.7730   27.3570 C   0  0  0  0  0  0  0  0  0  0  0  0
   -3.5890  -27.2530   26.5320 C   0  0  0  0  0  0  0  0  0  0  0  0
   -3.5380  -26.8570   25.1940 C   0  0  0  0  0  0  0  0  0  0  0  0
   -4.5040  -25.9830   24.6710 C   0  0  0  0  0  0  0  0  0  0  0  0
   -4.3900  -25.6090   23.3290 C   0  0  0  0  0  0  0  0  0  0  0  0
   -5.1881  -19.4480   21.5104 H   0  0  0  0  0  0  0  0  0  0  0  0
   -4.0872  -20.8476   21.7470 H   0  0  0  0  0  0  0  0  0  0  0  0
   -3.0615  -19.1372   20.3706 H   0  0  0  0  0  0  0  0  0  0  0  0
   -4.4292  -19.2387   19.2106 H   0  0  0  0  0  0  0  0  0  0  0  0
   -2.7238  -21.6585   20.0250 H   0  0  0  0  0  0  0  0  0  0  0  0
   -2.3822  -20.6503   18.5782 H   0  0  0  0  0  0  0  0  0  0  0  0
   -3.7785  -22.5566   17.9332 H   0  0  0  0  0  0  0  0  0  0  0  0
   -4.7330  -21.0401   17.8061 H   0  0  0  0  0  0  0  0  0  0  0  0
   -4.7842  -23.1124   20.0312 H   0  0  0  0  0  0  0  0  0  0  0  0
   -6.1043  -22.6827   18.8913 H   0  0  0  0  0  0  0  0  0  0  0  0
   -6.5968  -20.6567   20.0260 H   0  0  0  0  0  0  0  0  0  0  0  0
   -5.4056  -22.4816   22.1644 H   0  0  0  0  0  0  0  0  0  0  0  0
   -6.9095  -22.8683   21.2614 H   0  0  0  0  0  0  0  0  0  0  0  0
  -11.6695  -21.2493   23.3818 H   0  0  0  0  0  0  0  0  0  0  0  0
  -11.9996  -22.6041   24.4946 H   0  0  0  0  0  0  0  0  0  0  0  0
   -8.2032  -25.4021   25.9642 H   0  0  0  0  0  0  0  0  0  0  0  0
   -6.3697  -25.5544   27.4772 H   0  0  0  0  0  0  0  0  0  0  0  0
   -4.6438  -27.0682   28.3993 H   0  0  0  0  0  0  0  0  0  0  0  0
   -2.8417  -27.9314   26.9274 H   0  0  0  0  0  0  0  0  0  0  0  0
   -2.7457  -27.2276   24.5537 H   0  0  0  0  0  0  0  0  0  0  0  0
   -5.2126  -24.9272   23.0673 H   0  0  0  0  0  0  0  0  0  0  0  0
   -4.4402  -26.5051   22.6931 H   0  0  0  0  0  0  0  0  0  0  0  0
   -3.4277  -25.1003   23.1706 H   0  0  0  0  0  0  0  0  0  0  0  0
  1  2  1  0  0  0  0
  1  6  1  0  0  0  0
  1 26  1  0  0  0  0
  1 27  1  0  0  0  0
  2  3  1  0  0  0  0
  2 28  1  0  0  0  0
  2 29  1  0  0  0  0
  3  4  1  0  0  0  0
  3 30  1  0  0  0  0
  3 31  1  0  0  0  0
  4  5  1  0  0  0  0
  4 32  1  0  0  0  0
  4 33  1  0  0  0  0
  5  6  1  0  0  0  0
  5 34  1  0  0  0  0
  5 35  1  0  0  0  0
  6  7  1  0  0  0  0
  6 36  1  0  0  0  0
  7  8  1  0  0  0  0
  7 37  1  0  0  0  0
  7 38  1  0  0  0  0
  8  9  1  0  0  0  0
  9 10  2  0  0  0  0
  9 16  1  0  0  0  0
 10 11  1  0  0  0  0
 11 12  1  0  0  0  0
 11 13  2  0  0  0  0
 12 39  1  0  0  0  0
 12 40  1  0  0  0  0
 13 14  1  0  0  0  0
 14 15  1  0  0  0  0
 14 16  2  0  0  0  0
 15 18  1  0  0  0  0
 15 41  1  0  0  0  0
 16 17  1  0  0  0  0
 17 18  2  0  0  0  0
 18 19  1  0  0  0  0
 19 20  2  0  0  0  0
 19 24  1  0  0  0  0
 20 21  1  0  0  0  0
 20 42  1  0  0  0  0
 21 22  2  0  0  0  0
 21 43  1  0  0  0  0
 22 23  1  0  0  0  0
 22 44  1  0  0  0  0
 23 24  2  0  0  0  0
 23 45  1  0  0  0  0
 24 25  1  0  0  0  0
 25 46  1  0  0  0  0
 25 47  1  0  0  0  0
 25 48  1  0  0  0  0
M  END
