4cft_ligand
 OpenBabel08222323353D

 44 46  0  0  0  0  0  0  0  0999 V2000
   17.1450   18.4350   39.1190 F   0  0  0  0  0  0  0  0  0  0  0  0
   16.9650   14.7930   39.2240 C   0  0  0  0  0  0  0  0  0  0  0  0
   17.4640   16.0910   39.3490 C   0  0  0  0  0  0  0  0  0  0  0  0
   16.6640   17.1810   38.9970 C   0  0  0  0  0  0  0  0  0  0  0  0
   15.3650   16.9700   38.5200 C   0  0  0  0  0  0  0  0  0  0  0  0
   15.6670   14.5820   38.7520 C   0  0  0  0  0  0  0  0  0  0  0  0
   14.8610   15.6700   38.3910 C   0  0  0  0  0  0  0  0  0  0  0  0
   13.4500   15.4570   37.8730 C   0  0  0  0  0  0  0  0  0  0  0  0
   13.4200   14.5110   36.6710 C   0  0  0  0  0  0  0  0  0  0  0  0
   12.8030   15.1140   35.4980 N   0  3  0  0  0  0  0  0  0  0  0  0
   11.6340   14.5490   34.8320 C   0  0  0  0  0  0  0  0  0  0  0  0
   11.6750   13.0310   34.7930 C   0  0  0  0  0  0  0  0  0  0  0  0
   10.7180   12.3940   33.8060 C   0  0  0  0  0  0  0  0  0  0  0  0
   11.2160   11.3750   32.9920 C   0  0  0  0  0  0  0  0  0  0  0  0
   10.3860   10.7470   32.0690 C   0  0  0  0  0  0  0  0  0  0  0  0
    9.3570   12.7510   33.7170 C   0  0  0  0  0  0  0  0  0  0  0  0
    8.5180   12.1050   32.7900 C   0  0  0  0  0  0  0  0  0  0  0  0
    7.2030   12.4150   32.6810 N   0  0  0  0  0  0  0  0  0  0  0  0
    9.0460   11.1020   31.9650 C   0  0  0  0  0  0  0  0  0  0  0  0
    8.2380   10.4570   31.0380 C   0  0  0  0  0  0  0  0  0  0  0  0
    6.8980   10.8050   30.9210 C   0  0  0  0  0  0  0  0  0  0  0  0
    6.3970   11.7910   31.7830 C   0  0  0  0  0  0  0  0  0  0  0  0
    5.1090   12.1110   31.7200 N   0  0  0  0  0  0  0  0  0  0  0  0
   17.5863   13.9467   39.4939 H   0  0  0  0  0  0  0  0  0  0  0  0
   18.4702   16.2527   39.7184 H   0  0  0  0  0  0  0  0  0  0  0  0
   14.7459   17.8176   38.2490 H   0  0  0  0  0  0  0  0  0  0  0  0
   15.2818   13.5725   38.6647 H   0  0  0  0  0  0  0  0  0  0  0  0
   13.0315   16.4285   37.5714 H   0  0  0  0  0  0  0  0  0  0  0  0
   12.8364   15.0277   38.6787 H   0  0  0  0  0  0  0  0  0  0  0  0
   12.8500   13.6111   36.9453 H   0  0  0  0  0  0  0  0  0  0  0  0
   14.4529   14.2283   36.4195 H   0  0  0  0  0  0  0  0  0  0  0  0
   13.5260   15.1595   34.7972 H   0  0  0  0  0  0  0  0  0  0  0  0
   12.5412   16.0481   35.7719 H   0  0  0  0  0  0  0  0  0  0  0  0
   11.5955   14.9291   33.8005 H   0  0  0  0  0  0  0  0  0  0  0  0
   10.7302   14.8653   35.3734 H   0  0  0  0  0  0  0  0  0  0  0  0
   11.4298   12.6562   35.7977 H   0  0  0  0  0  0  0  0  0  0  0  0
   12.6967   12.7231   34.5261 H   0  0  0  0  0  0  0  0  0  0  0  0
   12.2531   11.0721   33.0795 H   0  0  0  0  0  0  0  0  0  0  0  0
   10.7880    9.9734   31.4247 H   0  0  0  0  0  0  0  0  0  0  0  0
    8.9565   13.5237   34.3632 H   0  0  0  0  0  0  0  0  0  0  0  0
    8.6532    9.6811   30.4049 H   0  0  0  0  0  0  0  0  0  0  0  0
    6.2594   10.3288   30.1858 H   0  0  0  0  0  0  0  0  0  0  0  0
    4.4941   11.6405   31.0407 H   0  0  0  0  0  0  0  0  0  0  0  0
    4.7254   12.8296   32.3504 H   0  0  0  0  0  0  0  0  0  0  0  0
  2  6  1  0  0  0  0
  2 24  1  0  0  0  0
  3  2  2  0  0  0  0
  3  4  1  0  0  0  0
  3 25  1  0  0  0  0
  4  1  1  0  0  0  0
  4  5  2  0  0  0  0
  5  7  1  0  0  0  0
  5 26  1  0  0  0  0
  6  7  2  0  0  0  0
  6 27  1  0  0  0  0
  7  8  1  0  0  0  0
  8  9  1  0  0  0  0
  8 28  1  0  0  0  0
  8 29  1  0  0  0  0
  9 10  1  0  0  0  0
  9 30  1  0  0  0  0
  9 31  1  0  0  0  0
 10 11  1  0  0  0  0
 10 32  1  0  0  0  0
 10 33  1  0  0  0  0
 11 12  1  0  0  0  0
 11 34  1  0  0  0  0
 11 35  1  0  0  0  0
 12 13  1  0  0  0  0
 12 36  1  0  0  0  0
 12 37  1  0  0  0  0
 13 14  2  0  0  0  0
 13 16  1  0  0  0  0
 14 15  1  0  0  0  0
 14 38  1  0  0  0  0
 15 19  2  0  0  0  0
 15 39  1  0  0  0  0
 16 17  2  0  0  0  0
 16 40  1  0  0  0  0
 17 18  1  0  0  0  0
 17 19  1  0  0  0  0
 18 22  2  0  0  0  0
 19 20  1  0  0  0  0
 20 21  2  0  0  0  0
 20 41  1  0  0  0  0
 21 22  1  0  0  0  0
 21 42  1  0  0  0  0
 22 23  1  0  0  0  0
 23 43  1  0  0  0  0
 23 44  1  0  0  0  0
M  CHG  1  10   1
M  END
