4cfv_ligand
 OpenBabel08222323353D

 49 52  0  0  0  0  0  0  0  0999 V2000
  -32.7740  -15.8740  -29.3380 N   0  0  0  0  0  0  0  0  0  0  0  0
  -32.4330  -16.1720  -28.0620 C   0  0  0  0  0  0  0  0  0  0  0  0
  -32.4580  -15.1450  -27.2980 N   0  0  0  0  0  0  0  0  0  0  0  0
  -32.0490  -17.4370  -27.6830 N   0  0  0  0  0  0  0  0  0  0  0  0
  -32.1680  -18.4590  -28.6200 C   0  0  0  0  0  0  0  0  0  0  0  0
  -32.5450  -18.1820  -29.9340 C   0  0  0  0  0  0  0  0  0  0  0  0
  -32.8270  -16.8860  -30.2390 C   0  0  0  0  0  0  0  0  0  0  0  0
  -33.2400  -16.5860  -31.5210 O   0  0  0  0  0  0  0  0  0  0  0  0
  -32.5530  -19.3750  -30.6530 N   0  0  0  0  0  0  0  0  0  0  0  0
  -32.1790  -20.3720  -29.7750 C   0  0  0  0  0  0  0  0  0  0  0  0
  -31.9340  -19.8090  -28.5610 N   0  0  0  0  0  0  0  0  0  0  0  0
  -33.9490  -15.3050  -31.7410 C   0  0  0  0  0  0  0  0  0  0  0  0
  -34.6650  -15.7820  -32.9340 C   0  0  0  0  0  0  0  0  0  0  0  0
  -31.8960  -21.6930  -29.9990 C   0  0  0  0  0  0  0  0  0  0  0  0
  -30.6390  -22.1750  -29.4830 C   0  0  0  0  0  0  0  0  0  0  0  0
  -30.1470  -23.4780  -29.6390 C   0  0  0  0  0  0  0  0  0  0  0  0
  -30.9270  -24.4130  -30.3180 C   0  0  0  0  0  0  0  0  0  0  0  0
  -32.1420  -23.9410  -30.8560 C   0  0  0  0  0  0  0  0  0  0  0  0
  -32.6630  -22.5970  -30.7590 C   0  0  0  0  0  0  0  0  0  0  0  0
  -33.9170  -22.1750  -31.3060 C   0  0  0  0  0  0  0  0  0  0  0  0
  -32.8720  -24.8240  -31.5520 O   0  0  0  0  0  0  0  0  0  0  0  0
  -36.2200  -15.8820  -32.7430 C   0  0  0  0  0  0  0  0  0  0  0  0
  -36.6230  -16.9850  -33.7230 C   0  0  0  0  0  0  0  0  0  0  0  0
  -36.3890  -16.4650  -35.1560 C   0  0  0  0  0  0  0  0  0  0  0  0
  -34.9210  -15.9920  -35.4040 C   0  0  0  0  0  0  0  0  0  0  0  0
  -34.3010  -15.0410  -34.2540 C   0  0  0  0  0  0  0  0  0  0  0  0
  -32.7611  -14.2336  -27.6700 H   0  0  0  0  0  0  0  0  0  0  0  0
  -32.1750  -15.2301  -26.3113 H   0  0  0  0  0  0  0  0  0  0  0  0
  -32.7920  -19.4908  -31.6482 H   0  0  0  0  0  0  0  0  0  0  0  0
  -33.2700  -14.4655  -31.9512 H   0  0  0  0  0  0  0  0  0  0  0  0
  -34.6207  -15.0348  -30.9129 H   0  0  0  0  0  0  0  0  0  0  0  0
  -34.3187  -16.8163  -33.0762 H   0  0  0  0  0  0  0  0  0  0  0  0
  -30.0252  -21.4733  -28.9300 H   0  0  0  0  0  0  0  0  0  0  0  0
  -29.1779  -23.7537  -29.2391 H   0  0  0  0  0  0  0  0  0  0  0  0
  -30.6166  -25.4459  -30.4264 H   0  0  0  0  0  0  0  0  0  0  0  0
  -34.0701  -21.1072  -31.0908 H   0  0  0  0  0  0  0  0  0  0  0  0
  -34.7304  -22.7606  -30.8528 H   0  0  0  0  0  0  0  0  0  0  0  0
  -33.9139  -22.3328  -32.3946 H   0  0  0  0  0  0  0  0  0  0  0  0
  -32.4350  -25.6675  -31.5480 H   0  0  0  0  0  0  0  0  0  0  0  0
  -36.7105  -14.9307  -32.9967 H   0  0  0  0  0  0  0  0  0  0  0  0
  -36.4732  -16.1610  -31.7095 H   0  0  0  0  0  0  0  0  0  0  0  0
  -37.6855  -17.2347  -33.5863 H   0  0  0  0  0  0  0  0  0  0  0  0
  -36.0101  -17.8814  -33.5474 H   0  0  0  0  0  0  0  0  0  0  0  0
  -37.0653  -15.6162  -35.3353 H   0  0  0  0  0  0  0  0  0  0  0  0
  -36.6204  -17.2742  -35.8643 H   0  0  0  0  0  0  0  0  0  0  0  0
  -34.8981  -15.4370  -36.3534 H   0  0  0  0  0  0  0  0  0  0  0  0
  -34.2848  -16.8856  -35.4861 H   0  0  0  0  0  0  0  0  0  0  0  0
  -33.2105  -14.9492  -34.3655 H   0  0  0  0  0  0  0  0  0  0  0  0
  -34.7580  -14.0409  -34.2823 H   0  0  0  0  0  0  0  0  0  0  0  0
  1  2  2  0  0  0  0
  1  7  1  0  0  0  0
  2  3  1  0  0  0  0
  2  4  1  0  0  0  0
  3 27  1  0  0  0  0
  3 28  1  0  0  0  0
  4  5  2  0  0  0  0
  5  6  1  0  0  0  0
  5 11  1  0  0  0  0
  6  7  2  0  0  0  0
  6  9  1  0  0  0  0
  7  8  1  0  0  0  0
  8 12  1  0  0  0  0
  9 10  1  0  0  0  0
  9 29  1  0  0  0  0
 10 11  2  0  0  0  0
 10 14  1  0  0  0  0
 12 13  1  0  0  0  0
 12 30  1  0  0  0  0
 12 31  1  0  0  0  0
 13 22  1  0  0  0  0
 13 26  1  0  0  0  0
 13 32  1  0  0  0  0
 14 15  2  0  0  0  0
 14 19  1  0  0  0  0
 15 16  1  0  0  0  0
 15 33  1  0  0  0  0
 16 17  2  0  0  0  0
 16 34  1  0  0  0  0
 17 18  1  0  0  0  0
 17 35  1  0  0  0  0
 18 19  2  0  0  0  0
 18 21  1  0  0  0  0
 19 20  1  0  0  0  0
 20 36  1  0  0  0  0
 20 37  1  0  0  0  0
 20 38  1  0  0  0  0
 21 39  1  0  0  0  0
 22 23  1  0  0  0  0
 22 40  1  0  0  0  0
 22 41  1  0  0  0  0
 23 24  1  0  0  0  0
 23 42  1  0  0  0  0
 23 43  1  0  0  0  0
 24 25  1  0  0  0  0
 24 44  1  0  0  0  0
 24 45  1  0  0  0  0
 25 26  1  0  0  0  0
 25 46  1  0  0  0  0
 25 47  1  0  0  0  0
 26 48  1  0  0  0  0
 26 49  1  0  0  0  0
M  END
