4ch8_ligand
 OpenBabel08222323353D

 58 58  0  0  1  0  0  0  0  0999 V2000
   42.5380   -2.2680   63.4350 N   0  3  0  0  0  0  0  0  0  0  0  0
   41.5080   -2.5700   62.4050 C   0  0  2  0  0  0  0  0  0  0  0  0
   40.4950   -3.7100   62.7660 C   0  0  0  0  0  0  0  0  0  0  0  0
   39.5620   -3.9600   62.0070 O   0  0  0  0  0  0  0  0  0  0  0  0
   42.1850   -2.8490   61.0580 C   0  0  0  0  0  0  0  0  0  0  0  0
   43.1570   -4.0280   60.9480 C   0  0  0  0  0  0  0  0  0  0  0  0
   43.1220   -4.5610   59.5170 C   0  0  0  0  0  0  0  0  0  0  0  0
   44.5980   -3.6740   61.3670 C   0  0  0  0  0  0  0  0  0  0  0  0
   40.6960   -4.4020   63.8840 N   0  0  0  0  0  0  0  0  0  0  0  0
   39.6970   -5.3520   64.3910 C   0  0  2  0  0  0  0  0  0  0  0  0
   39.4330   -4.9640   65.8040 C   0  0  0  0  0  0  0  0  0  0  0  0
   40.3560   -4.5700   66.5400 O   0  0  0  0  0  0  0  0  0  0  0  0
   40.1540   -6.8140   64.3400 C   0  0  0  0  0  0  0  0  0  0  0  0
   40.1650   -7.4060   62.9230 C   0  0  0  0  0  0  0  0  0  0  0  0
   38.9910   -7.8420   62.2790 C   0  0  0  0  0  0  0  0  0  0  0  0
   41.3970   -7.5450   62.2740 C   0  0  0  0  0  0  0  0  0  0  0  0
   39.0370   -8.4100   60.9990 C   0  0  0  0  0  0  0  0  0  0  0  0
   41.4660   -8.0710   60.9950 C   0  0  0  0  0  0  0  0  0  0  0  0
   40.2880   -8.5180   60.3670 C   0  0  0  0  0  0  0  0  0  0  0  0
   40.3280   -9.0500   59.1090 O   0  0  0  0  0  0  0  0  0  0  0  0
   41.4310  -10.0880   58.5530 P   0  0  0  0  0  0  0  0  0  0  0  0
   40.7390  -10.7050   57.3690 O   0  0  0  0  0  1  0  0  0  0  0  0
   41.8110  -11.1430   59.5710 O   0  0  0  0  0  1  0  0  0  0  0  0
   42.5700   -9.1300   58.2910 O   0  0  0  0  0  0  0  0  0  0  0  0
   38.1760   -5.0650   66.2080 N   0  0  0  0  0  0  0  0  0  0  0  0
   37.7980   -4.8770   67.5660 C   0  0  2  0  0  0  0  0  0  0  0  0
   38.6170   -5.7250   68.5180 C   0  0  0  0  0  0  0  0  0  0  0  0
   38.4310   -6.9709   68.4924 O   0  5  0  0  0  0  0  0  0  0  0  0
   36.3430   -5.2690   67.7010 C   0  0  0  0  0  0  0  0  0  0  0  0
   35.8260   -5.0560   69.0240 C   0  0  0  0  0  0  0  0  0  0  0  0
   35.8970   -3.9180   69.5340 O   0  5  0  0  0  0  0  0  0  0  0  0
   35.2020   -5.9820   69.5510 O   0  0  0  0  0  0  0  0  0  0  0  0
   39.4520   -5.2042   69.3049 O   0  0  0  0  0  0  0  0  0  0  0  0
   43.1346   -1.5251   63.1059 H   0  0  0  0  0  0  0  0  0  0  0  0
   43.0920   -3.0921   63.6080 H   0  0  0  0  0  0  0  0  0  0  0  0
   42.0854   -1.9820   64.2891 H   0  0  0  0  0  0  0  0  0  0  0  0
   40.9096   -1.6545   62.2878 H   0  0  0  0  0  0  0  0  0  0  0  0
   42.7448   -1.9426   60.7842 H   0  0  0  0  0  0  0  0  0  0  0  0
   41.3842   -3.0213   60.3238 H   0  0  0  0  0  0  0  0  0  0  0  0
   42.8028   -4.8216   61.6224 H   0  0  0  0  0  0  0  0  0  0  0  0
   43.8165   -5.4090   59.4245 H   0  0  0  0  0  0  0  0  0  0  0  0
   43.4222   -3.7636   58.8213 H   0  0  0  0  0  0  0  0  0  0  0  0
   42.1021   -4.8943   59.2747 H   0  0  0  0  0  0  0  0  0  0  0  0
   44.5967   -3.2933   62.3990 H   0  0  0  0  0  0  0  0  0  0  0  0
   44.9971   -2.9025   60.6921 H   0  0  0  0  0  0  0  0  0  0  0  0
   45.2283   -4.5736   61.3089 H   0  0  0  0  0  0  0  0  0  0  0  0
   41.5478   -4.2724   64.3916 H   0  0  0  0  0  0  0  0  0  0  0  0
   38.7760   -5.2550   63.7975 H   0  0  0  0  0  0  0  0  0  0  0  0
   39.4726   -7.4132   64.9618 H   0  0  0  0  0  0  0  0  0  0  0  0
   41.1730   -6.8743   64.7499 H   0  0  0  0  0  0  0  0  0  0  0  0
   38.0364   -7.7365   62.7816 H   0  0  0  0  0  0  0  0  0  0  0  0
   42.3064   -7.2378   62.7776 H   0  0  0  0  0  0  0  0  0  0  0  0
   38.1337   -8.7563   60.5100 H   0  0  0  0  0  0  0  0  0  0  0  0
   42.4185   -8.1380   60.4819 H   0  0  0  0  0  0  0  0  0  0  0  0
   37.4684   -5.2808   65.5352 H   0  0  0  0  0  0  0  0  0  0  0  0
   37.9259   -3.8172   67.8316 H   0  0  0  0  0  0  0  0  0  0  0  0
   36.2427   -6.3359   67.4528 H   0  0  0  0  0  0  0  0  0  0  0  0
   35.7513   -4.6705   66.9927 H   0  0  0  0  0  0  0  0  0  0  0  0
  1  2  1  0  0  0  0
  1 34  1  0  0  0  0
  1 35  1  0  0  0  0
  1 36  1  0  0  0  0
  2  3  1  0  0  0  0
  2  5  1  0  0  0  0
  2 37  1  6  0  0  0
  3  4  2  0  0  0  0
  3  9  1  0  0  0  0
  5  6  1  0  0  0  0
  5 38  1  0  0  0  0
  5 39  1  0  0  0  0
  6  7  1  0  0  0  0
  6  8  1  0  0  0  0
  6 40  1  0  0  0  0
  7 41  1  0  0  0  0
  7 42  1  0  0  0  0
  7 43  1  0  0  0  0
  8 44  1  0  0  0  0
  8 45  1  0  0  0  0
  8 46  1  0  0  0  0
  9 10  1  0  0  0  0
  9 47  1  0  0  0  0
 10 11  1  0  0  0  0
 10 13  1  0  0  0  0
 10 48  1  6  0  0  0
 11 12  2  0  0  0  0
 11 25  1  0  0  0  0
 13 14  1  0  0  0  0
 13 49  1  0  0  0  0
 13 50  1  0  0  0  0
 14 15  2  0  0  0  0
 14 16  1  0  0  0  0
 15 17  1  0  0  0  0
 15 51  1  0  0  0  0
 16 18  2  0  0  0  0
 16 52  1  0  0  0  0
 17 19  2  0  0  0  0
 17 53  1  0  0  0  0
 18 19  1  0  0  0  0
 18 54  1  0  0  0  0
 19 20  1  0  0  0  0
 20 21  1  0  0  0  0
 21 22  1  0  0  0  0
 21 23  1  0  0  0  0
 21 24  2  0  0  0  0
 25 26  1  0  0  0  0
 25 55  1  0  0  0  0
 26 27  1  0  0  0  0
 26 29  1  0  0  0  0
 26 56  1  1  0  0  0
 27 28  1  0  0  0  0
 27 33  2  0  0  0  0
 29 30  1  0  0  0  0
 29 57  1  0  0  0  0
 29 58  1  0  0  0  0
 30 31  1  0  0  0  0
 30 32  2  0  0  0  0
M  CHG  3   1   1  28  -1  31  -1
M  END
