4ci1_ligand
 OpenBabel08222323353D

 29 31  0  0  1  0  0  0  0  0999 V2000
   -1.9230    7.6950   11.5530 O   0  0  0  0  0  0  0  0  0  0  0  0
   -1.7150    8.1980   12.6490 C   0  0  0  0  0  0  0  0  0  0  0  0
   -1.2940    9.4800   12.7950 N   0  0  0  0  0  0  0  0  0  0  0  0
   -1.0710   10.0980   13.9790 C   0  0  0  0  0  0  0  0  0  0  0  0
   -0.6930   11.2480   14.0060 O   0  0  0  0  0  0  0  0  0  0  0  0
   -1.3060    9.3770   15.2840 C   0  0  0  0  0  0  0  0  0  0  0  0
   -1.1110    7.8540   15.0770 C   0  0  0  0  0  0  0  0  0  0  0  0
   -2.0010    7.3990   13.8990 C   0  0  2  0  0  0  0  0  0  0  0  0
   -1.8960    5.9660   13.6690 N   0  0  0  0  0  0  0  0  0  0  0  0
   -1.1600    1.4940   12.4720 C   0  0  0  0  0  0  0  0  0  0  0  0
   -0.5210    2.7510   12.3880 C   0  0  0  0  0  0  0  0  0  0  0  0
   -1.2270    3.8480   12.9070 C   0  0  0  0  0  0  0  0  0  0  0  0
   -2.5050    3.7040   13.4760 C   0  0  0  0  0  0  0  0  0  0  0  0
    0.1860    5.7930   12.6040 O   0  0  0  0  0  0  0  0  0  0  0  0
   -3.9930    5.3480   14.4010 O   0  0  0  0  0  0  0  0  0  0  0  0
   -3.1470    2.4540   13.5350 C   0  0  0  0  0  0  0  0  0  0  0  0
   -2.4540    1.3430   13.0130 C   0  0  0  0  0  0  0  0  0  0  0  0
   -2.9000    5.0910   13.9260 C   0  0  0  0  0  0  0  0  0  0  0  0
   -0.8680    5.3160   13.0430 C   0  0  0  0  0  0  0  0  0  0  0  0
   -1.1359   10.0103   11.9620 H   0  0  0  0  0  0  0  0  0  0  0  0
   -2.3318    9.5712   15.6303 H   0  0  0  0  0  0  0  0  0  0  0  0
   -0.5901    9.7390   16.0367 H   0  0  0  0  0  0  0  0  0  0  0  0
   -1.4021    7.3155   15.9909 H   0  0  0  0  0  0  0  0  0  0  0  0
   -0.0561    7.6432   14.8474 H   0  0  0  0  0  0  0  0  0  0  0  0
   -3.0439    7.6043   14.1820 H   0  0  0  0  0  0  0  0  0  0  0  0
   -0.6385    0.6160   12.1085 H   0  0  0  0  0  0  0  0  0  0  0  0
    0.4625    2.8627   11.9461 H   0  0  0  0  0  0  0  0  0  0  0  0
   -4.1364    2.3490   13.9652 H   0  0  0  0  0  0  0  0  0  0  0  0
   -2.9195    0.3641   13.0274 H   0  0  0  0  0  0  0  0  0  0  0  0
  2  1  2  0  0  0  0
  2  3  1  0  0  0  0
  3  4  1  0  0  0  0
  3 20  1  0  0  0  0
  4  5  2  0  0  0  0
  6  4  1  0  0  0  0
  6 21  1  0  0  0  0
  6 22  1  0  0  0  0
  7  6  1  0  0  0  0
  7 23  1  0  0  0  0
  7 24  1  0  0  0  0
  8  2  1  0  0  0  0
  8  7  1  0  0  0  0
  8 25  1  1  0  0  0
  9  8  1  0  0  0  0
  9 18  1  0  0  0  0
 10 17  1  0  0  0  0
 10 26  1  0  0  0  0
 11 10  2  0  0  0  0
 11 27  1  0  0  0  0
 12 11  1  0  0  0  0
 12 13  2  0  0  0  0
 12 19  1  0  0  0  0
 13 16  1  0  0  0  0
 13 18  1  0  0  0  0
 16 17  2  0  0  0  0
 16 28  1  0  0  0  0
 17 29  1  0  0  0  0
 18 15  2  0  0  0  0
 19  9  1  0  0  0  0
 19 14  2  0  0  0  0
M  END
