4civ_ligand
 OpenBabel08222323353D

 25 25  0  0  1  0  0  0  0  0999 V2000
   13.7080    3.6830   41.9960 O   0  0  0  0  0  0  0  0  0  0  0  0
   13.3790    2.7040   40.9930 C   0  0  1  0  0  0  0  0  0  0  0  0
   11.8730    2.3980   41.0860 C   0  0  2  0  0  0  0  0  0  0  0  0
   11.5900    1.6990   42.3090 O   0  0  0  0  0  0  0  0  0  0  0  0
   11.4380    1.5330   39.9180 C   0  0  0  0  0  0  0  0  0  0  0  0
   11.6700    2.2910   38.6120 C   0  0  1  0  0  0  0  0  0  0  0  0
   11.6590    1.3950   37.5240 C   0  0  0  0  0  0  0  0  0  0  0  0
   10.7410    1.5240   36.6910 O   0  5  0  0  0  0  0  0  0  0  0  0
   12.5850    0.5510   37.4390 O   0  0  0  0  0  0  0  0  0  0  0  0
   10.6400    3.2770   38.4630 O   0  0  0  0  0  0  0  0  0  0  0  0
   12.8920    2.9680   38.5930 C   0  0  0  0  0  0  0  0  0  0  0  0
   13.7230    3.1660   39.7010 C   0  0  0  0  0  0  0  0  0  0  0  0
   14.8950    3.8680   39.4680 C   0  0  0  0  0  0  0  0  0  0  0  0
   15.7140    3.0310   38.6430 O   0  0  0  0  0  0  0  0  0  0  0  0
   14.6358    3.8820   41.9504 H   0  0  0  0  0  0  0  0  0  0  0  0
   13.9441    1.7821   41.1948 H   0  0  0  0  0  0  0  0  0  0  0  0
   11.3118    3.3439   41.0673 H   0  0  0  0  0  0  0  0  0  0  0  0
   11.8466    2.2386   43.0475 H   0  0  0  0  0  0  0  0  0  0  0  0
   10.3694    1.2919   40.0176 H   0  0  0  0  0  0  0  0  0  0  0  0
   12.0248    0.6026   39.9116 H   0  0  0  0  0  0  0  0  0  0  0  0
    9.7940    2.8465   38.4263 H   0  0  0  0  0  0  0  0  0  0  0  0
   13.2245    3.3743   37.6389 H   0  0  0  0  0  0  0  0  0  0  0  0
   15.4058    4.0808   40.4187 H   0  0  0  0  0  0  0  0  0  0  0  0
   14.6751    4.8133   38.9502 H   0  0  0  0  0  0  0  0  0  0  0  0
   16.5328    3.4753   38.4572 H   0  0  0  0  0  0  0  0  0  0  0  0
  1  2  1  0  0  0  0
  1 15  1  0  0  0  0
  2  3  1  0  0  0  0
  2 12  1  0  0  0  0
  2 16  1  1  0  0  0
  3  4  1  0  0  0  0
  3  5  1  0  0  0  0
  3 17  1  6  0  0  0
  4 18  1  0  0  0  0
  5  6  1  0  0  0  0
  5 19  1  0  0  0  0
  5 20  1  0  0  0  0
  6  7  1  6  0  0  0
  6 10  1  0  0  0  0
  6 11  1  0  0  0  0
  7  8  1  0  0  0  0
  7  9  2  0  0  0  0
 10 21  1  0  0  0  0
 11 12  2  0  0  0  0
 11 22  1  0  0  0  0
 12 13  1  0  0  0  0
 13 14  1  0  0  0  0
 13 23  1  0  0  0  0
 13 24  1  0  0  0  0
 14 25  1  0  0  0  0
M  CHG  1   8  -1
M  END
