4cix_ligand
 OpenBabel08222323353D

 38 39  0  0  1  0  0  0  0  0999 V2000
    6.4620  -31.1470  -46.5600 C   0  0  0  0  0  0  0  0  0  0  0  0
    5.1520  -31.6220  -46.4710 C   0  0  0  0  0  0  0  0  0  0  0  0
    4.1440  -31.0020  -47.2070 C   0  0  0  0  0  0  0  0  0  0  0  0
    4.4340  -29.9150  -48.0350 C   0  0  0  0  0  0  0  0  0  0  0  0
    5.7430  -29.4430  -48.1270 C   0  0  0  0  0  0  0  0  0  0  0  0
    6.7650  -30.0560  -47.3890 C   0  0  0  0  0  0  0  0  0  0  0  0
    8.0810  -29.5880  -47.4840 C   0  0  0  0  0  0  0  0  0  0  0  0
    8.2600  -28.3370  -46.6250 C   0  0  2  0  0  0  0  0  0  0  0  0
    9.3680  -27.5560  -47.1310 O   0  0  0  0  0  0  0  0  0  0  0  0
    8.4180  -28.7170  -45.2780 C   0  0  0  0  0  0  0  0  0  0  0  0
    7.2700  -28.7030  -44.4830 C   0  0  0  0  0  0  0  0  0  0  0  0
    7.2200  -29.0660  -43.1350 C   0  0  2  0  0  0  0  0  0  0  0  0
    6.0870  -29.8820  -42.9560 C   0  0  0  0  0  0  0  0  0  0  0  0
    6.2420  -31.1100  -42.7890 O   0  5  0  0  0  0  0  0  0  0  0  0
    4.9810  -29.3180  -43.0050 O   0  0  0  0  0  0  0  0  0  0  0  0
    7.0540  -27.8900  -42.3490 O   0  0  0  0  0  0  0  0  0  0  0  0
    8.4640  -29.7960  -42.6720 C   0  0  0  0  0  0  0  0  0  0  0  0
    9.6810  -29.0590  -43.2390 C   0  0  1  0  0  0  0  0  0  0  0  0
   10.9080  -29.6970  -42.7860 O   0  0  0  0  0  0  0  0  0  0  0  0
    9.6620  -29.1260  -44.7650 C   0  0  2  0  0  0  0  0  0  0  0  0
   10.7200  -28.2780  -45.2190 O   0  0  0  0  0  0  0  0  0  0  0  0
    7.2487  -31.6232  -45.9860 H   0  0  0  0  0  0  0  0  0  0  0  0
    4.9205  -32.4676  -45.8335 H   0  0  0  0  0  0  0  0  0  0  0  0
    3.1256  -31.3666  -47.1363 H   0  0  0  0  0  0  0  0  0  0  0  0
    3.6436  -29.4396  -48.6045 H   0  0  0  0  0  0  0  0  0  0  0  0
    5.9705  -28.6007  -48.7703 H   0  0  0  0  0  0  0  0  0  0  0  0
    8.3048  -29.3435  -48.5329 H   0  0  0  0  0  0  0  0  0  0  0  0
    8.7709  -30.3703  -47.1346 H   0  0  0  0  0  0  0  0  0  0  0  0
    7.3503  -27.7233  -46.7006 H   0  0  0  0  0  0  0  0  0  0  0  0
   10.1616  -28.0773  -47.1001 H   0  0  0  0  0  0  0  0  0  0  0  0
    6.3400  -28.3838  -44.9510 H   0  0  0  0  0  0  0  0  0  0  0  0
    6.2726  -27.4294  -42.6314 H   0  0  0  0  0  0  0  0  0  0  0  0
    8.4488  -30.8319  -43.0417 H   0  0  0  0  0  0  0  0  0  0  0  0
    8.5080  -29.7995  -41.5729 H   0  0  0  0  0  0  0  0  0  0  0  0
    9.6606  -28.0099  -42.9090 H   0  0  0  0  0  0  0  0  0  0  0  0
   11.6557  -29.2324  -43.1431 H   0  0  0  0  0  0  0  0  0  0  0  0
    9.8530  -30.1590  -45.0911 H   0  0  0  0  0  0  0  0  0  0  0  0
   10.7470  -28.2880  -46.1685 H   0  0  0  0  0  0  0  0  0  0  0  0
  1  2  2  0  0  0  0
  1  6  1  0  0  0  0
  1 22  1  0  0  0  0
  2  3  1  0  0  0  0
  2 23  1  0  0  0  0
  3  4  2  0  0  0  0
  3 24  1  0  0  0  0
  4  5  1  0  0  0  0
  4 25  1  0  0  0  0
  5  6  2  0  0  0  0
  5 26  1  0  0  0  0
  6  7  1  0  0  0  0
  7  8  1  0  0  0  0
  7 27  1  0  0  0  0
  7 28  1  0  0  0  0
  8  9  1  0  0  0  0
  8 10  1  0  0  0  0
  8 29  1  6  0  0  0
  9 30  1  0  0  0  0
 10 11  2  0  0  0  0
 10 20  1  0  0  0  0
 11 12  1  0  0  0  0
 11 31  1  0  0  0  0
 12 13  1  1  0  0  0
 12 16  1  0  0  0  0
 12 17  1  0  0  0  0
 13 14  1  0  0  0  0
 13 15  2  0  0  0  0
 16 32  1  0  0  0  0
 17 18  1  0  0  0  0
 17 33  1  0  0  0  0
 17 34  1  0  0  0  0
 18 19  1  0  0  0  0
 18 20  1  0  0  0  0
 18 35  1  1  0  0  0
 19 36  1  0  0  0  0
 20 21  1  0  0  0  0
 20 37  1  6  0  0  0
 21 38  1  0  0  0  0
M  CHG  1  14  -1
M  END
