4ciy_ligand
 OpenBabel08222323353D

 38 39  0  0  1  0  0  0  0  0999 V2000
  -14.5000  -29.1070    6.1440 C   0  0  0  0  0  0  0  0  0  0  0  0
  -13.3280  -29.0810    5.3750 C   0  0  0  0  0  0  0  0  0  0  0  0
  -12.0740  -29.4420    5.9110 C   0  0  0  0  0  0  0  0  0  0  0  0
  -11.9710  -29.8360    7.2380 C   0  0  0  0  0  0  0  0  0  0  0  0
  -13.1350  -29.8490    8.0090 C   0  0  0  0  0  0  0  0  0  0  0  0
  -14.4070  -29.4790    7.4970 C   0  0  0  0  0  0  0  0  0  0  0  0
  -15.5620  -29.5990    8.3410 C   0  0  0  0  0  0  0  0  0  0  0  0
  -16.4140  -28.3980    8.5720 C   0  0  1  0  0  0  0  0  0  0  0  0
  -16.0610  -27.4550    7.5760 O   0  0  0  0  0  0  0  0  0  0  0  0
  -17.8130  -28.7660    8.5890 C   0  0  0  0  0  0  0  0  0  0  0  0
  -18.5620  -28.7700    7.4080 C   0  0  0  0  0  0  0  0  0  0  0  0
  -19.9860  -29.0670    7.3350 C   0  0  2  0  0  0  0  0  0  0  0  0
  -20.2390  -29.9020    6.1590 C   0  0  0  0  0  0  0  0  0  0  0  0
  -20.4800  -31.1360    6.2530 O   0  5  0  0  0  0  0  0  0  0  0  0
  -20.2460  -29.3470    5.0550 O   0  0  0  0  0  0  0  0  0  0  0  0
  -20.7180  -27.7990    7.1930 O   0  0  0  0  0  0  0  0  0  0  0  0
  -20.5480  -29.7220    8.6140 C   0  0  0  0  0  0  0  0  0  0  0  0
  -19.9850  -29.0330    9.8330 C   0  0  1  0  0  0  0  0  0  0  0  0
  -20.4090  -29.7140   11.0880 O   0  0  0  0  0  0  0  0  0  0  0  0
  -18.4290  -29.0510    9.8450 C   0  0  2  0  0  0  0  0  0  0  0  0
  -18.1240  -28.0470   10.8290 O   0  0  0  0  0  0  0  0  0  0  0  0
  -15.4564  -28.8462    5.7055 H   0  0  0  0  0  0  0  0  0  0  0  0
  -13.3872  -28.7742    4.3370 H   0  0  0  0  0  0  0  0  0  0  0  0
  -11.1892  -29.4116    5.2854 H   0  0  0  0  0  0  0  0  0  0  0  0
  -11.0163  -30.1247    7.6626 H   0  0  0  0  0  0  0  0  0  0  0  0
  -13.0646  -30.1557    9.0463 H   0  0  0  0  0  0  0  0  0  0  0  0
  -15.2082  -29.9379    9.3259 H   0  0  0  0  0  0  0  0  0  0  0  0
  -16.2070  -30.3717    7.8973 H   0  0  0  0  0  0  0  0  0  0  0  0
  -16.1727  -27.9680    9.5553 H   0  0  0  0  0  0  0  0  0  0  0  0
  -16.5831  -26.6691    7.6863 H   0  0  0  0  0  0  0  0  0  0  0  0
  -18.0449  -28.5348    6.4789 H   0  0  0  0  0  0  0  0  0  0  0  0
  -20.4205  -27.3487    6.4112 H   0  0  0  0  0  0  0  0  0  0  0  0
  -20.2666  -30.7852    8.6333 H   0  0  0  0  0  0  0  0  0  0  0  0
  -21.6443  -29.6327    8.6182 H   0  0  0  0  0  0  0  0  0  0  0  0
  -20.3406  -27.9921    9.8392 H   0  0  0  0  0  0  0  0  0  0  0  0
  -21.3571  -29.7047   11.1472 H   0  0  0  0  0  0  0  0  0  0  0  0
  -18.0721  -30.0362   10.1796 H   0  0  0  0  0  0  0  0  0  0  0  0
  -17.1815  -27.9712   10.9208 H   0  0  0  0  0  0  0  0  0  0  0  0
  1  2  2  0  0  0  0
  1  6  1  0  0  0  0
  1 22  1  0  0  0  0
  2  3  1  0  0  0  0
  2 23  1  0  0  0  0
  3  4  2  0  0  0  0
  3 24  1  0  0  0  0
  4  5  1  0  0  0  0
  4 25  1  0  0  0  0
  5  6  2  0  0  0  0
  5 26  1  0  0  0  0
  6  7  1  0  0  0  0
  7  8  1  0  0  0  0
  7 27  1  0  0  0  0
  7 28  1  0  0  0  0
  8  9  1  0  0  0  0
  8 10  1  0  0  0  0
  8 29  1  1  0  0  0
  9 30  1  0  0  0  0
 10 11  2  0  0  0  0
 10 20  1  0  0  0  0
 11 12  1  0  0  0  0
 11 31  1  0  0  0  0
 12 13  1  6  0  0  0
 12 16  1  0  0  0  0
 12 17  1  0  0  0  0
 13 14  1  0  0  0  0
 13 15  2  0  0  0  0
 16 32  1  0  0  0  0
 17 18  1  0  0  0  0
 17 33  1  0  0  0  0
 17 34  1  0  0  0  0
 18 19  1  0  0  0  0
 18 20  1  0  0  0  0
 18 35  1  1  0  0  0
 19 36  1  0  0  0  0
 20 21  1  0  0  0  0
 20 37  1  1  0  0  0
 21 38  1  0  0  0  0
M  CHG  1  14  -1
M  END
