4ciz_ligand
 OpenBabel08222323353D

 38 38  0  0  1  0  0  0  0  0999 V2000
   -6.0680   15.1820   12.2900 C   0  0  0  0  0  0  0  0  0  0  0  0
   -7.0930   14.7590   13.3540 C   0  0  0  0  0  0  0  0  0  0  0  0
   -8.3320   15.6390   13.3020 C   0  0  0  0  0  0  0  0  0  0  0  0
   -9.0470   15.4750   11.9710 C   0  0  0  0  0  0  0  0  0  0  0  0
   -8.1150   15.2210   10.8230 C   0  0  1  0  0  0  0  0  0  0  0  0
   -6.7730   15.2830   10.9550 C   0  0  2  0  0  0  0  0  0  0  0  0
   -5.9060   15.0910    9.7990 C   0  0  0  0  0  0  0  0  0  0  0  0
   -4.9770   15.9210    9.3220 C   0  0  0  0  0  0  0  0  0  0  0  0
   -4.2970   15.6730    8.0490 C   0  0  0  0  0  0  0  0  0  0  0  0
   -2.9560   15.8420    7.9310 C   0  0  0  0  0  0  0  0  0  0  0  0
   -5.4290   16.5350   12.6740 C   0  0  0  0  0  0  0  0  0  0  0  0
   -4.9340   14.1430   12.2510 C   0  0  0  0  0  0  0  0  0  0  0  0
   -8.7580   14.5520    9.6580 C   0  0  0  0  0  0  0  0  0  0  0  0
   -5.1520   15.2250    6.8950 C   0  0  0  0  0  0  0  0  0  0  0  0
   -6.6333   14.8446   14.3496 H   0  0  0  0  0  0  0  0  0  0  0  0
   -7.3868   13.7143   13.1744 H   0  0  0  0  0  0  0  0  0  0  0  0
   -8.0343   16.6907   13.4256 H   0  0  0  0  0  0  0  0  0  0  0  0
   -9.0136   15.3527   14.1165 H   0  0  0  0  0  0  0  0  0  0  0  0
   -9.6136   16.3947   11.7635 H   0  0  0  0  0  0  0  0  0  0  0  0
   -9.7421   14.6262   12.0505 H   0  0  0  0  0  0  0  0  0  0  0  0
   -8.1907   16.2373   10.4089 H   0  0  0  0  0  0  0  0  0  0  0  0
   -6.7492   16.3822   10.9201 H   0  0  0  0  0  0  0  0  0  0  0  0
   -6.0323   14.1544    9.2580 H   0  0  0  0  0  0  0  0  0  0  0  0
   -4.7167   16.8090    9.8961 H   0  0  0  0  0  0  0  0  0  0  0  0
   -2.4653   15.6534    6.9773 H   0  0  0  0  0  0  0  0  0  0  0  0
   -2.3704   16.1663    8.7900 H   0  0  0  0  0  0  0  0  0  0  0  0
   -4.9229   16.4387   13.6459 H   0  0  0  0  0  0  0  0  0  0  0  0
   -6.2124   17.3040   12.7432 H   0  0  0  0  0  0  0  0  0  0  0  0
   -4.6966   16.8256   11.9065 H   0  0  0  0  0  0  0  0  0  0  0  0
   -5.3466   13.1599   11.9801 H   0  0  0  0  0  0  0  0  0  0  0  0
   -4.4592   14.0811   13.2413 H   0  0  0  0  0  0  0  0  0  0  0  0
   -4.1855   14.4450   11.5037 H   0  0  0  0  0  0  0  0  0  0  0  0
   -9.8517   14.6196    9.7541 H   0  0  0  0  0  0  0  0  0  0  0  0
   -8.4571   13.4943    9.6305 H   0  0  0  0  0  0  0  0  0  0  0  0
   -8.4402   15.0479    8.7290 H   0  0  0  0  0  0  0  0  0  0  0  0
   -6.2006   15.1573    7.2202 H   0  0  0  0  0  0  0  0  0  0  0  0
   -4.8115   14.2384    6.5477 H   0  0  0  0  0  0  0  0  0  0  0  0
   -5.0691   15.9517    6.0734 H   0  0  0  0  0  0  0  0  0  0  0  0
  1  2  1  0  0  0  0
  1  6  1  0  0  0  0
  1 11  1  0  0  0  0
  1 12  1  0  0  0  0
  2  3  1  0  0  0  0
  2 15  1  0  0  0  0
  2 16  1  0  0  0  0
  3  4  1  0  0  0  0
  3 17  1  0  0  0  0
  3 18  1  0  0  0  0
  4  5  1  0  0  0  0
  4 19  1  0  0  0  0
  4 20  1  0  0  0  0
  5  6  1  0  0  0  0
  5 13  1  0  0  0  0
  5 21  1  6  0  0  0
  6  7  1  0  0  0  0
  6 22  1  6  0  0  0
  7  8  2  0  0  0  0
  7 23  1  0  0  0  0
  8  9  1  0  0  0  0
  8 24  1  0  0  0  0
  9 10  2  0  0  0  0
  9 14  1  0  0  0  0
 10 25  1  0  0  0  0
 10 26  1  0  0  0  0
 11 27  1  0  0  0  0
 11 28  1  0  0  0  0
 11 29  1  0  0  0  0
 12 30  1  0  0  0  0
 12 31  1  0  0  0  0
 12 32  1  0  0  0  0
 13 33  1  0  0  0  0
 13 34  1  0  0  0  0
 13 35  1  0  0  0  0
 14 36  1  0  0  0  0
 14 37  1  0  0  0  0
 14 38  1  0  0  0  0
M  END
