4cl9_ligand
 OpenBabel08222323353D

 80 82  0  0  1  0  0  0  0  0999 V2000
   31.9210   47.2450   -2.8230 C   0  0  0  0  0  0  0  0  0  0  0  0
   31.0140   47.8930   -3.8220 C   0  0  0  0  0  0  0  0  0  0  0  0
   30.5080   46.9330   -4.8390 C   0  0  0  0  0  0  0  0  0  0  0  0
   29.8390   48.4130   -3.0550 O   0  0  0  0  0  0  0  0  0  0  0  0
   29.3800   49.6360   -3.3940 C   0  0  0  0  0  0  0  0  0  0  0  0
   29.9030   50.3460   -4.2220 O   0  0  0  0  0  0  0  0  0  0  0  0
   28.4560   50.0640   -2.5130 N   0  0  0  0  0  0  0  0  0  0  0  0
   27.7040   49.1620   -1.6380 C   0  0  2  0  0  0  0  0  0  0  0  0
   26.2590   49.6430   -1.5510 C   0  0  0  0  0  0  0  0  0  0  0  0
   25.4170   48.8630   -0.5370 C   0  0  2  0  0  0  0  0  0  0  0  0
   24.4320   49.7370    0.2200 C   0  0  0  0  0  0  0  0  0  0  0  0
   26.2310   48.0410    0.3850 N   0  0  0  0  0  0  0  0  0  0  0  0
   25.6980   46.8710    0.8660 C   0  0  0  0  0  0  0  0  0  0  0  0
   26.5330   46.0280    1.7800 C   0  0  0  0  0  0  0  0  0  0  0  0
   24.5710   46.5250    0.5400 O   0  0  0  0  0  0  0  0  0  0  0  0
   27.5100   48.5610    0.7440 C   0  0  0  0  0  0  0  0  0  0  0  0
   27.9560   48.5290    2.0550 C   0  0  0  0  0  0  0  0  0  0  0  0
   29.1940   49.0390    2.3720 C   0  0  0  0  0  0  0  0  0  0  0  0
   30.0240   49.5990    1.4060 C   0  0  0  0  0  0  0  0  0  0  0  0
   29.5590   49.6470    0.0870 C   0  0  0  0  0  0  0  0  0  0  0  0
   28.3170   49.1050   -0.2570 C   0  0  0  0  0  0  0  0  0  0  0  0
   31.3470   50.1520    1.7940 C   0  0  0  0  0  0  0  0  0  0  0  0
   31.8960   51.2610    1.1530 C   0  0  0  0  0  0  0  0  0  0  0  0
   33.1020   51.8040    1.5640 C   0  0  0  0  0  0  0  0  0  0  0  0
   33.7710   51.2720    2.6620 C   0  0  0  0  0  0  0  0  0  0  0  0
   35.0390   51.7500    3.0710 N   0  0  0  0  0  0  0  0  0  0  0  0
   35.6150   51.6790    4.2900 C   0  0  0  0  0  0  0  0  0  0  0  0
   35.0660   51.2200    5.2870 O   0  0  0  0  0  0  0  0  0  0  0  0
   37.0370   52.1780    4.3440 C   0  0  0  0  0  0  0  0  0  0  0  0
   38.0220   51.0090    4.2860 C   0  0  0  0  0  0  0  0  0  0  0  0
   37.9300   50.1570    3.0190 C   0  0  0  0  0  0  0  0  0  0  0  0
   38.5740   48.7640    3.1170 C   0  0  0  0  0  0  0  0  0  0  0  0
   40.0660   48.7800    3.4000 C   0  0  0  0  0  0  0  0  0  0  0  0
   40.7080   47.3910    3.3160 C   0  0  0  0  0  0  0  0  0  0  0  0
   40.4100   46.5250    4.5180 C   0  0  0  0  0  0  0  0  0  0  0  0
   40.5220   46.9510    5.6650 O   0  0  0  0  0  0  0  0  0  0  0  0
   40.0180   45.2970    4.2370 N   0  0  0  0  0  0  0  0  0  0  0  0
   39.7190   44.4240    5.2790 O   0  0  0  0  0  0  0  0  0  0  0  0
   33.2400   50.1600    3.3010 C   0  0  0  0  0  0  0  0  0  0  0  0
   32.0460   49.6190    2.8760 C   0  0  0  0  0  0  0  0  0  0  0  0
   32.8063   46.8435   -3.3379 H   0  0  0  0  0  0  0  0  0  0  0  0
   31.3866   46.4258   -2.3197 H   0  0  0  0  0  0  0  0  0  0  0  0
   32.2368   47.9895   -2.0774 H   0  0  0  0  0  0  0  0  0  0  0  0
   31.5434   48.7151   -4.3258 H   0  0  0  0  0  0  0  0  0  0  0  0
   29.8493   47.4600   -5.5449 H   0  0  0  0  0  0  0  0  0  0  0  0
   29.9435   46.1324   -4.3387 H   0  0  0  0  0  0  0  0  0  0  0  0
   31.3569   46.4966   -5.3857 H   0  0  0  0  0  0  0  0  0  0  0  0
   28.2744   51.0456   -2.4533 H   0  0  0  0  0  0  0  0  0  0  0  0
   27.7203   48.1512   -2.0715 H   0  0  0  0  0  0  0  0  0  0  0  0
   25.7961   49.5369   -2.5432 H   0  0  0  0  0  0  0  0  0  0  0  0
   26.2617   50.7036   -1.2591 H   0  0  0  0  0  0  0  0  0  0  0  0
   24.8127   48.1575   -1.1260 H   0  0  0  0  0  0  0  0  0  0  0  0
   23.8619   49.1181    0.9284 H   0  0  0  0  0  0  0  0  0  0  0  0
   23.7402   50.2111   -0.4918 H   0  0  0  0  0  0  0  0  0  0  0  0
   24.9805   50.5147    0.7716 H   0  0  0  0  0  0  0  0  0  0  0  0
   25.9653   45.1327    2.0737 H   0  0  0  0  0  0  0  0  0  0  0  0
   26.7934   46.6078    2.6778 H   0  0  0  0  0  0  0  0  0  0  0  0
   27.4534   45.7242    1.2599 H   0  0  0  0  0  0  0  0  0  0  0  0
   27.3302   48.1025    2.8306 H   0  0  0  0  0  0  0  0  0  0  0  0
   29.5315   49.0035    3.4015 H   0  0  0  0  0  0  0  0  0  0  0  0
   30.1703   50.1109   -0.6787 H   0  0  0  0  0  0  0  0  0  0  0  0
   31.3693   51.7070    0.3171 H   0  0  0  0  0  0  0  0  0  0  0  0
   33.5260   52.6459    1.0287 H   0  0  0  0  0  0  0  0  0  0  0  0
   35.5810   52.2008    2.3618 H   0  0  0  0  0  0  0  0  0  0  0  0
   37.1898   52.7329    5.2814 H   0  0  0  0  0  0  0  0  0  0  0  0
   37.2182   52.8458    3.4889 H   0  0  0  0  0  0  0  0  0  0  0  0
   37.8315   50.3573    5.1515 H   0  0  0  0  0  0  0  0  0  0  0  0
   39.0416   51.4166    4.3513 H   0  0  0  0  0  0  0  0  0  0  0  0
   38.4264   50.7045    2.2042 H   0  0  0  0  0  0  0  0  0  0  0  0
   36.8656   50.0232    2.7757 H   0  0  0  0  0  0  0  0  0  0  0  0
   38.4107   48.2417    2.1628 H   0  0  0  0  0  0  0  0  0  0  0  0
   38.0763   48.2113    3.9274 H   0  0  0  0  0  0  0  0  0  0  0  0
   40.2262   49.1792    4.4124 H   0  0  0  0  0  0  0  0  0  0  0  0
   40.5548   49.4367    2.6653 H   0  0  0  0  0  0  0  0  0  0  0  0
   41.7981   47.5138    3.2350 H   0  0  0  0  0  0  0  0  0  0  0  0
   40.3283   46.8839    2.4168 H   0  0  0  0  0  0  0  0  0  0  0  0
   39.9367   44.9970    3.2865 H   0  0  0  0  0  0  0  0  0  0  0  0
   39.0116   44.7852    5.8001 H   0  0  0  0  0  0  0  0  0  0  0  0
   33.7667   49.7154    4.1377 H   0  0  0  0  0  0  0  0  0  0  0  0
   31.6405   48.7583    3.3955 H   0  0  0  0  0  0  0  0  0  0  0  0
  1  2  1  0  0  0  0
  1 41  1  0  0  0  0
  1 42  1  0  0  0  0
  1 43  1  0  0  0  0
  2  3  1  0  0  0  0
  2  4  1  0  0  0  0
  2 44  1  0  0  0  0
  3 45  1  0  0  0  0
  3 46  1  0  0  0  0
  3 47  1  0  0  0  0
  4  5  1  0  0  0  0
  5  6  2  0  0  0  0
  5  7  1  0  0  0  0
  7  8  1  0  0  0  0
  7 48  1  0  0  0  0
  8  9  1  0  0  0  0
  8 21  1  0  0  0  0
  8 49  1  6  0  0  0
  9 10  1  0  0  0  0
  9 50  1  0  0  0  0
  9 51  1  0  0  0  0
 10 11  1  0  0  0  0
 10 12  1  0  0  0  0
 10 52  1  6  0  0  0
 11 53  1  0  0  0  0
 11 54  1  0  0  0  0
 11 55  1  0  0  0  0
 12 13  1  0  0  0  0
 12 16  1  0  0  0  0
 13 14  1  0  0  0  0
 13 15  2  0  0  0  0
 14 56  1  0  0  0  0
 14 57  1  0  0  0  0
 14 58  1  0  0  0  0
 16 17  2  0  0  0  0
 16 21  1  0  0  0  0
 17 18  1  0  0  0  0
 17 59  1  0  0  0  0
 18 19  2  0  0  0  0
 18 60  1  0  0  0  0
 19 20  1  0  0  0  0
 19 22  1  0  0  0  0
 20 21  2  0  0  0  0
 20 61  1  0  0  0  0
 22 23  2  0  0  0  0
 22 40  1  0  0  0  0
 23 24  1  0  0  0  0
 23 62  1  0  0  0  0
 24 25  2  0  0  0  0
 24 63  1  0  0  0  0
 25 26  1  0  0  0  0
 25 39  1  0  0  0  0
 26 27  1  0  0  0  0
 26 64  1  0  0  0  0
 27 28  2  0  0  0  0
 27 29  1  0  0  0  0
 29 30  1  0  0  0  0
 29 65  1  0  0  0  0
 29 66  1  0  0  0  0
 30 31  1  0  0  0  0
 30 67  1  0  0  0  0
 30 68  1  0  0  0  0
 31 32  1  0  0  0  0
 31 69  1  0  0  0  0
 31 70  1  0  0  0  0
 32 33  1  0  0  0  0
 32 71  1  0  0  0  0
 32 72  1  0  0  0  0
 33 34  1  0  0  0  0
 33 73  1  0  0  0  0
 33 74  1  0  0  0  0
 34 35  1  0  0  0  0
 34 75  1  0  0  0  0
 34 76  1  0  0  0  0
 35 36  2  0  0  0  0
 35 37  1  0  0  0  0
 37 38  1  0  0  0  0
 37 77  1  0  0  0  0
 38 78  1  0  0  0  0
 39 40  2  0  0  0  0
 39 79  1  0  0  0  0
 40 80  1  0  0  0  0
M  END
