4clp_ligand
 OpenBabel08222323353D

 33 36  0  0  1  0  0  0  0  0999 V2000
  -32.6410  -18.9260   21.8030 P   0  0  2  0  0  0  0  0  0  0  0  0
  -33.2070  -18.0840   20.6780 O   0  0  0  0  0  1  0  0  0  0  0  0
  -32.6390  -20.4100   21.6450 O   0  0  0  0  0  0  0  0  0  0  0  0
  -33.6550  -18.7120   23.0410 O   0  0  0  0  0  0  0  0  0  0  0  0
  -33.2680  -18.7950   24.3980 C   0  0  0  0  0  0  0  0  0  0  0  0
  -32.3220  -17.6520   24.3010 C   0  0  1  0  0  0  0  0  0  0  0  0
  -31.9180  -17.0500   25.5230 O   0  0  0  0  0  0  0  0  0  0  0  0
  -31.0120  -18.0530   23.6170 C   0  0  1  0  0  0  0  0  0  0  0  0
  -31.1810  -18.3360   22.2130 O   0  0  0  0  0  0  0  0  0  0  0  0
  -30.1660  -16.8700   23.9830 C   0  0  1  0  0  0  0  0  0  0  0  0
  -29.7350  -16.2650   22.7900 O   0  0  0  0  0  0  0  0  0  0  0  0
  -31.1990  -16.0740   24.7600 C   0  0  2  0  0  0  0  0  0  0  0  0
  -30.8980  -14.7620   25.3540 N   0  0  0  0  0  0  0  0  0  0  0  0
  -31.8080  -13.8230   25.0140 C   0  0  0  0  0  0  0  0  0  0  0  0
  -31.5130  -12.6400   25.5190 N   0  0  0  0  0  0  0  0  0  0  0  0
  -30.3780  -12.7670   26.1800 C   0  0  0  0  0  0  0  0  0  0  0  0
  -29.5860  -11.8190   26.9370 C   0  0  0  0  0  0  0  0  0  0  0  0
  -30.0220  -10.5490   27.0010 N   0  0  0  0  0  0  0  0  0  0  0  0
  -28.4560  -12.2860   27.5510 N   0  0  0  0  0  0  0  0  0  0  0  0
  -28.0970  -13.5800   27.4350 C   0  0  0  0  0  0  0  0  0  0  0  0
  -28.8200  -14.5160   26.7470 N   0  0  0  0  0  0  0  0  0  0  0  0
  -29.9440  -14.1800   26.0890 C   0  0  0  0  0  0  0  0  0  0  0  0
  -32.7756  -19.7454   24.6514 H   0  0  0  0  0  0  0  0  0  0  0  0
  -34.0973  -18.6137   25.0976 H   0  0  0  0  0  0  0  0  0  0  0  0
  -32.8212  -16.8828   23.6934 H   0  0  0  0  0  0  0  0  0  0  0  0
  -30.5967  -18.9596   24.0812 H   0  0  0  0  0  0  0  0  0  0  0  0
  -29.2993  -17.1324   24.6075 H   0  0  0  0  0  0  0  0  0  0  0  0
  -29.2283  -16.8897   22.2846 H   0  0  0  0  0  0  0  0  0  0  0  0
  -31.9172  -15.7759   23.9820 H   0  0  0  0  0  0  0  0  0  0  0  0
  -32.6826  -14.0194   24.3956 H   0  0  0  0  0  0  0  0  0  0  0  0
  -29.4857   -9.8464   27.5299 H   0  0  0  0  0  0  0  0  0  0  0  0
  -30.8923  -10.2785   26.5212 H   0  0  0  0  0  0  0  0  0  0  0  0
  -27.1794  -13.8986   27.9162 H   0  0  0  0  0  0  0  0  0  0  0  0
  1  2  1  6  0  0  0
  1  3  2  0  0  0  0
  1  4  1  0  0  0  0
  1  9  1  0  0  0  0
  4  5  1  0  0  0  0
  5  6  1  0  0  0  0
  5 23  1  0  0  0  0
  5 24  1  0  0  0  0
  6  7  1  0  0  0  0
  6  8  1  0  0  0  0
  6 25  1  6  0  0  0
  7 12  1  0  0  0  0
  8  9  1  0  0  0  0
  8 10  1  0  0  0  0
  8 26  1  1  0  0  0
 10 11  1  0  0  0  0
 10 12  1  0  0  0  0
 10 27  1  1  0  0  0
 11 28  1  0  0  0  0
 12 13  1  0  0  0  0
 12 29  1  6  0  0  0
 13 14  1  0  0  0  0
 13 22  1  0  0  0  0
 14 15  2  0  0  0  0
 14 30  1  0  0  0  0
 15 16  1  0  0  0  0
 16 17  2  0  0  0  0
 16 22  1  0  0  0  0
 17 18  1  0  0  0  0
 17 19  1  0  0  0  0
 18 31  1  0  0  0  0
 18 32  1  0  0  0  0
 19 20  2  0  0  0  0
 20 21  1  0  0  0  0
 20 33  1  0  0  0  0
 21 22  2  0  0  0  0
M  END
