4cpq_ligand
 OpenBabel08222323353D

114116  0  0  1  0  0  0  0  0999 V2000
    4.9520   25.0590    0.3430 C   0  0  0  0  0  0  0  0  0  0  0  0
    6.0240   25.6380    0.8980 C   0  0  0  0  0  0  0  0  0  0  0  0
    6.3070   25.3920    2.3790 C   0  0  0  0  0  0  0  0  0  0  0  0
    7.6340   25.0100    2.5460 C   0  0  0  0  0  0  0  0  0  0  0  0
    7.9310   23.7720    3.1020 C   0  0  0  0  0  0  0  0  0  0  0  0
    9.2550   23.3870    3.2770 C   0  0  0  0  0  0  0  0  0  0  0  0
    8.6600   25.8920    2.2280 C   0  0  0  0  0  0  0  0  0  0  0  0
    9.9850   25.5150    2.4230 C   0  0  0  0  0  0  0  0  0  0  0  0
   10.2790   24.2810    2.9900 C   0  0  0  0  0  0  0  0  0  0  0  0
   11.5990   23.9140    3.1980 C   0  0  0  0  0  0  0  0  0  0  0  0
   10.9100   24.3920    5.5670 C   0  0  0  0  0  0  0  0  0  0  0  0
   10.5200   23.3340    6.0570 O   0  0  0  0  0  0  0  0  0  0  0  0
   10.3500   25.5840    5.8370 N   0  0  0  0  0  0  0  0  0  0  0  0
    9.1280   25.6690    6.6600 C   0  0  1  0  0  0  0  0  0  0  0  0
    9.4580   26.1080    8.0960 C   0  0  0  0  0  0  0  0  0  0  0  0
    9.2500   27.6150    8.2500 C   0  0  0  0  0  0  0  0  0  0  0  0
   10.9080   25.7580    8.4400 C   0  0  0  0  0  0  0  0  0  0  0  0
    8.1340   26.6500    6.0250 C   0  0  0  0  0  0  0  0  0  0  0  0
    8.4980   27.7500    5.6130 O   0  0  0  0  0  0  0  0  0  0  0  0
    6.8910   26.1720    5.8730 N   0  0  0  0  0  0  0  0  0  0  0  0
    5.8220   26.9550    5.2360 C   0  0  0  0  0  0  0  0  0  0  0  0
    5.2150   27.9080    6.2630 C   0  0  0  0  0  0  0  0  0  0  0  0
    4.6170   27.3950    7.3470 C   0  0  0  0  0  0  0  0  0  0  0  0
   12.5730   25.7430    4.4500 O   0  0  0  0  0  0  0  0  0  0  0  0
   13.1930   23.4880    5.0430 C   0  0  0  0  0  0  0  0  0  0  0  0
   13.7750   24.0000    6.3600 C   0  0  0  0  0  0  0  0  0  0  0  0
   15.2680   23.6790    6.3890 C   0  0  0  0  0  0  0  0  0  0  0  0
   15.5030   22.3140    6.8850 N   0  3  1  0  0  0  0  0  0  0  0  0
   16.0400   21.6860    6.0490 N   0  0  0  0  0  0  0  0  0  0  0  0
   15.3860   20.6370    5.5190 C   0  0  0  0  0  0  0  0  0  0  0  0
   12.0720   24.4120    4.5670 C   0  0  2  0  0  0  0  0  0  0  0  0
   14.2860   20.2440    5.9100 O   0  0  0  0  0  0  0  0  0  0  0  0
   16.2510   19.7730    4.5890 C   0  0  2  0  0  0  0  0  0  0  0  0
   15.4110   19.1040    3.4920 C   0  0  0  0  0  0  0  0  0  0  0  0
   16.3480   18.3790    2.5240 C   0  0  0  0  0  0  0  0  0  0  0  0
   14.6170   20.1630    2.7240 C   0  0  0  0  0  0  0  0  0  0  0  0
   14.4460   18.0900    4.1110 C   0  0  0  0  0  0  0  0  0  0  0  0
   16.9250   18.7400    5.3880 N   0  0  0  0  0  0  0  0  0  0  0  0
   18.2390   18.8070    5.6430 C   0  0  0  0  0  0  0  0  0  0  0  0
   18.9290   19.6790    5.1130 O   0  0  0  0  0  0  0  0  0  0  0  0
   18.8020   17.9240    6.5150 O   0  0  0  0  0  0  0  0  0  0  0  0
   20.2150   18.1310    6.5910 C   0  0  0  0  0  0  0  0  0  0  0  0
   16.3900   22.4150    8.0540 C   0  0  0  0  0  0  0  0  0  0  0  0
   16.4660   21.2050    8.7300 C   0  0  0  0  0  0  0  0  0  0  0  0
   17.6770   20.5270    8.8110 C   0  0  0  0  0  0  0  0  0  0  0  0
   17.7540   19.3240    9.5040 C   0  0  0  0  0  0  0  0  0  0  0  0
   15.3360   20.6910    9.3560 C   0  0  0  0  0  0  0  0  0  0  0  0
   15.4120   19.4840   10.0400 C   0  0  0  0  0  0  0  0  0  0  0  0
   16.6160   18.7930   10.1030 C   0  0  0  0  0  0  0  0  0  0  0  0
   17.8580   17.2520   11.4800 C   0  0  0  0  0  0  0  0  0  0  0  0
   16.6890   17.5960   10.8070 C   0  0  0  0  0  0  0  0  0  0  0  0
   15.5610   16.7900   10.9180 C   0  0  0  0  0  0  0  0  0  0  0  0
   15.6160   15.6120   11.6710 N   0  0  0  0  0  0  0  0  0  0  0  0
   16.8070   15.2530   12.3170 C   0  0  0  0  0  0  0  0  0  0  0  0
   17.9200   16.0790   12.2230 C   0  0  0  0  0  0  0  0  0  0  0  0
    4.7306   25.2202   -0.7110 H   0  0  0  0  0  0  0  0  0  0  0  0
    4.3014   24.4269    0.9456 H   0  0  0  0  0  0  0  0  0  0  0  0
    6.6816   26.2721    0.3052 H   0  0  0  0  0  0  0  0  0  0  0  0
    5.6474   24.5935    2.7495 H   0  0  0  0  0  0  0  0  0  0  0  0
    6.1185   26.3158    2.9456 H   0  0  0  0  0  0  0  0  0  0  0  0
    7.1294   23.1057    3.3996 H   0  0  0  0  0  0  0  0  0  0  0  0
    9.4881   22.3913    3.6366 H   0  0  0  0  0  0  0  0  0  0  0  0
    8.4281   26.8726    1.8285 H   0  0  0  0  0  0  0  0  0  0  0  0
   10.7874   26.1835    2.1328 H   0  0  0  0  0  0  0  0  0  0  0  0
   12.2284   24.3569    2.4120 H   0  0  0  0  0  0  0  0  0  0  0  0
   11.6825   22.8178    3.1605 H   0  0  0  0  0  0  0  0  0  0  0  0
   10.7648   26.4198    5.4773 H   0  0  0  0  0  0  0  0  0  0  0  0
    8.6636   24.6726    6.6983 H   0  0  0  0  0  0  0  0  0  0  0  0
    8.7879   25.5808    8.7910 H   0  0  0  0  0  0  0  0  0  0  0  0
    9.4895   27.9147    9.2809 H   0  0  0  0  0  0  0  0  0  0  0  0
    8.2017   27.8649    8.0297 H   0  0  0  0  0  0  0  0  0  0  0  0
    9.9092   28.1496    7.5503 H   0  0  0  0  0  0  0  0  0  0  0  0
   11.0596   24.6741    8.3298 H   0  0  0  0  0  0  0  0  0  0  0  0
   11.1204   26.0542    9.4778 H   0  0  0  0  0  0  0  0  0  0  0  0
   11.5860   26.2941    7.7596 H   0  0  0  0  0  0  0  0  0  0  0  0
    6.6837   25.2515    6.2041 H   0  0  0  0  0  0  0  0  0  0  0  0
    5.0431   26.2756    4.8596 H   0  0  0  0  0  0  0  0  0  0  0  0
    6.2393   27.5340    4.3990 H   0  0  0  0  0  0  0  0  0  0  0  0
    5.2671   28.9859    6.1171 H   0  0  0  0  0  0  0  0  0  0  0  0
    4.1778   28.0575    8.0914 H   0  0  0  0  0  0  0  0  0  0  0  0
    4.5702   26.3156    7.4835 H   0  0  0  0  0  0  0  0  0  0  0  0
   13.2930   25.7558    3.8304 H   0  0  0  0  0  0  0  0  0  0  0  0
   12.7902   22.4754    5.1929 H   0  0  0  0  0  0  0  0  0  0  0  0
   13.9868   23.4580    4.2822 H   0  0  0  0  0  0  0  0  0  0  0  0
   13.2729   23.5053    7.2045 H   0  0  0  0  0  0  0  0  0  0  0  0
   13.6282   25.0877    6.4323 H   0  0  0  0  0  0  0  0  0  0  0  0
   15.7774   24.3950    7.0507 H   0  0  0  0  0  0  0  0  0  0  0  0
   15.6750   23.7670    5.3709 H   0  0  0  0  0  0  0  0  0  0  0  0
   14.6312   21.8774    7.1407 H   0  0  0  0  0  0  0  0  0  0  0  0
   16.9602   21.9257    5.7395 H   0  0  0  0  0  0  0  0  0  0  0  0
   17.0076   20.4135    4.1123 H   0  0  0  0  0  0  0  0  0  0  0  0
   15.7556   17.8956    1.7331 H   0  0  0  0  0  0  0  0  0  0  0  0
   16.9213   17.6160    3.0709 H   0  0  0  0  0  0  0  0  0  0  0  0
   17.0407   19.1041    2.0719 H   0  0  0  0  0  0  0  0  0  0  0  0
   13.9413   20.6877    3.4155 H   0  0  0  0  0  0  0  0  0  0  0  0
   14.0270   19.6769    1.9331 H   0  0  0  0  0  0  0  0  0  0  0  0
   15.3119   20.8857    2.2715 H   0  0  0  0  0  0  0  0  0  0  0  0
   15.0177   17.3293    4.6628 H   0  0  0  0  0  0  0  0  0  0  0  0
   13.8635   17.6044    3.3142 H   0  0  0  0  0  0  0  0  0  0  0  0
   13.7633   18.6075    4.8010 H   0  0  0  0  0  0  0  0  0  0  0  0
   16.3935   17.9732    5.7479 H   0  0  0  0  0  0  0  0  0  0  0  0
   20.6535   17.4113    7.2980 H   0  0  0  0  0  0  0  0  0  0  0  0
   20.4175   19.1552    6.9375 H   0  0  0  0  0  0  0  0  0  0  0  0
   20.6609   17.9856    5.5960 H   0  0  0  0  0  0  0  0  0  0  0  0
   15.9986   23.1837    8.7365 H   0  0  0  0  0  0  0  0  0  0  0  0
   17.3970   22.7021    7.7171 H   0  0  0  0  0  0  0  0  0  0  0  0
   18.5605   20.9359    8.3343 H   0  0  0  0  0  0  0  0  0  0  0  0
   18.7002   18.8001    9.5775 H   0  0  0  0  0  0  0  0  0  0  0  0
   14.3972   21.2310    9.3105 H   0  0  0  0  0  0  0  0  0  0  0  0
   14.5306   19.0807   10.5253 H   0  0  0  0  0  0  0  0  0  0  0  0
   18.7238   17.9019   11.4243 H   0  0  0  0  0  0  0  0  0  0  0  0
   14.6402   17.0742   10.4216 H   0  0  0  0  0  0  0  0  0  0  0  0
   16.8595   14.3333   12.8884 H   0  0  0  0  0  0  0  0  0  0  0  0
   18.8389   15.8081   12.7303 H   0  0  0  0  0  0  0  0  0  0  0  0
  1 56  1  0  0  0  0
  1 57  1  0  0  0  0
  2  1  2  0  0  0  0
  2 58  1  0  0  0  0
  3  2  1  0  0  0  0
  3 59  1  0  0  0  0
  3 60  1  0  0  0  0
  4  3  1  0  0  0  0
  5  4  2  0  0  0  0
  5 61  1  0  0  0  0
  6  5  1  0  0  0  0
  6 62  1  0  0  0  0
  7  4  1  0  0  0  0
  7 63  1  0  0  0  0
  8  7  2  0  0  0  0
  8 64  1  0  0  0  0
  9  6  2  0  0  0  0
  9  8  1  0  0  0  0
 10  9  1  0  0  0  0
 10 65  1  0  0  0  0
 10 66  1  0  0  0  0
 11 12  2  0  0  0  0
 11 13  1  0  0  0  0
 13 14  1  0  0  0  0
 13 67  1  0  0  0  0
 14 15  1  0  0  0  0
 14 18  1  0  0  0  0
 14 68  1  1  0  0  0
 15 16  1  0  0  0  0
 15 17  1  0  0  0  0
 15 69  1  0  0  0  0
 16 70  1  0  0  0  0
 16 71  1  0  0  0  0
 16 72  1  0  0  0  0
 17 73  1  0  0  0  0
 17 74  1  0  0  0  0
 17 75  1  0  0  0  0
 18 19  2  0  0  0  0
 18 20  1  0  0  0  0
 20 21  1  0  0  0  0
 20 76  1  0  0  0  0
 21 22  1  0  0  0  0
 21 77  1  0  0  0  0
 21 78  1  0  0  0  0
 22 23  2  0  0  0  0
 22 79  1  0  0  0  0
 23 80  1  0  0  0  0
 23 81  1  0  0  0  0
 24 82  1  0  0  0  0
 25 26  1  0  0  0  0
 25 31  1  0  0  0  0
 25 83  1  0  0  0  0
 25 84  1  0  0  0  0
 26 27  1  0  0  0  0
 26 85  1  0  0  0  0
 26 86  1  0  0  0  0
 27 28  1  0  0  0  0
 27 87  1  0  0  0  0
 27 88  1  0  0  0  0
 28 29  1  0  0  0  0
 28 43  1  0  0  0  0
 28 89  1  1  0  0  0
 29 30  1  0  0  0  0
 29 90  1  0  0  0  0
 30 32  2  0  0  0  0
 30 33  1  0  0  0  0
 31 10  1  0  0  0  0
 31 11  1  1  0  0  0
 31 24  1  0  0  0  0
 33 34  1  0  0  0  0
 33 38  1  0  0  0  0
 33 91  1  6  0  0  0
 34 35  1  0  0  0  0
 34 36  1  0  0  0  0
 34 37  1  0  0  0  0
 35 92  1  0  0  0  0
 35 93  1  0  0  0  0
 35 94  1  0  0  0  0
 36 95  1  0  0  0  0
 36 96  1  0  0  0  0
 36 97  1  0  0  0  0
 37 98  1  0  0  0  0
 37 99  1  0  0  0  0
 37100  1  0  0  0  0
 38 39  1  0  0  0  0
 38101  1  0  0  0  0
 39 40  2  0  0  0  0
 39 41  1  0  0  0  0
 41 42  1  0  0  0  0
 42102  1  0  0  0  0
 42103  1  0  0  0  0
 42104  1  0  0  0  0
 43 44  1  0  0  0  0
 43105  1  0  0  0  0
 43106  1  0  0  0  0
 44 45  2  0  0  0  0
 44 47  1  0  0  0  0
 45 46  1  0  0  0  0
 45107  1  0  0  0  0
 46 49  2  0  0  0  0
 46108  1  0  0  0  0
 47 48  2  0  0  0  0
 47109  1  0  0  0  0
 48 49  1  0  0  0  0
 48110  1  0  0  0  0
 49 51  1  0  0  0  0
 50 55  1  0  0  0  0
 50111  1  0  0  0  0
 51 50  2  0  0  0  0
 51 52  1  0  0  0  0
 52 53  2  0  0  0  0
 52112  1  0  0  0  0
 53 54  1  0  0  0  0
 54 55  2  0  0  0  0
 54113  1  0  0  0  0
 55114  1  0  0  0  0
M  CHG  1  28   1
M  END
