4cqf_ligand
 OpenBabel08222323353D

 39 39  0  0  0  0  0  0  0  0999 V2000
   46.1650   33.5440   86.2490 O   0  0  0  0  0  0  0  0  0  0  0  0
   46.0930   32.9900   85.1640 C   0  0  0  0  0  0  0  0  0  0  0  0
   47.2660   32.2200   84.6740 C   0  0  0  0  0  0  0  0  0  0  0  0
   48.0730   31.0510   85.7180 S   0  0  0  0  0  0  0  0  0  0  0  0
   44.9210   33.0910   84.3400 N   0  0  0  0  0  0  0  0  0  0  0  0
   43.7630   33.8680   84.6820 C   0  0  0  0  0  0  0  0  0  0  0  0
   42.9230   34.3090   83.5290 C   0  0  0  0  0  0  0  0  0  0  0  0
   43.0060   35.6520   82.8860 C   0  0  0  0  0  0  0  0  0  0  0  0
   41.8240   36.5430   83.1060 C   0  0  0  0  0  0  0  0  0  0  0  0
   41.0410   37.0460   81.9350 C   0  0  0  0  0  0  0  0  0  0  0  0
   41.3440   38.4020   81.3720 C   0  0  0  0  0  0  0  0  0  0  0  0
   41.3170   38.5360   80.1540 O   0  0  0  0  0  0  0  0  0  0  0  0
   41.6600   39.4970   82.2600 N   0  0  0  0  0  0  0  0  0  0  0  0
   41.9680   40.8580   81.8820 C   0  0  0  0  0  0  0  0  0  0  0  0
   41.0780   41.5760   81.0650 C   0  0  0  0  0  0  0  0  0  0  0  0
   41.3530   42.8990   80.6970 C   0  0  0  0  0  0  0  0  0  0  0  0
   42.5110   43.5190   81.1670 C   0  0  0  0  0  0  0  0  0  0  0  0
   43.3950   42.8190   81.9980 C   0  0  0  0  0  0  0  0  0  0  0  0
   43.1120   41.5030   82.3740 C   0  0  0  0  0  0  0  0  0  0  0  0
   48.0271   32.9584   84.3816 H   0  0  0  0  0  0  0  0  0  0  0  0
   46.9301   31.6675   83.7841 H   0  0  0  0  0  0  0  0  0  0  0  0
   47.4163   30.3368   85.9913 H   0  0  0  0  0  0  0  0  0  0  0  0
   44.9108   32.5894   83.4750 H   0  0  0  0  0  0  0  0  0  0  0  0
   44.1035   34.7669   85.2169 H   0  0  0  0  0  0  0  0  0  0  0  0
   43.1323   33.2615   85.3486 H   0  0  0  0  0  0  0  0  0  0  0  0
   41.8811   34.2072   83.8667 H   0  0  0  0  0  0  0  0  0  0  0  0
   43.1205   33.5842   82.7255 H   0  0  0  0  0  0  0  0  0  0  0  0
   43.1215   35.5029   81.8023 H   0  0  0  0  0  0  0  0  0  0  0  0
   43.8952   36.1638   83.2826 H   0  0  0  0  0  0  0  0  0  0  0  0
   42.1892   37.4278   83.6480 H   0  0  0  0  0  0  0  0  0  0  0  0
   41.1208   35.9869   83.7434 H   0  0  0  0  0  0  0  0  0  0  0  0
   39.9833   37.0540   82.2370 H   0  0  0  0  0  0  0  0  0  0  0  0
   41.1841   36.3218   81.1195 H   0  0  0  0  0  0  0  0  0  0  0  0
   41.6663   39.2920   83.2387 H   0  0  0  0  0  0  0  0  0  0  0  0
   40.1686   41.1005   80.7158 H   0  0  0  0  0  0  0  0  0  0  0  0
   40.6700   43.4382   80.0506 H   0  0  0  0  0  0  0  0  0  0  0  0
   42.7270   44.5441   80.8886 H   0  0  0  0  0  0  0  0  0  0  0  0
   44.3008   43.2991   82.3503 H   0  0  0  0  0  0  0  0  0  0  0  0
   43.7793   40.9788   83.0485 H   0  0  0  0  0  0  0  0  0  0  0  0
  1  2  2  0  0  0  0
  2  3  1  0  0  0  0
  2  5  1  0  0  0  0
  3  4  1  0  0  0  0
  3 20  1  0  0  0  0
  3 21  1  0  0  0  0
  4 22  1  0  0  0  0
  5  6  1  0  0  0  0
  5 23  1  0  0  0  0
  6  7  1  0  0  0  0
  6 24  1  0  0  0  0
  6 25  1  0  0  0  0
  7  8  1  0  0  0  0
  7 26  1  0  0  0  0
  7 27  1  0  0  0  0
  8  9  1  0  0  0  0
  8 28  1  0  0  0  0
  8 29  1  0  0  0  0
  9 10  1  0  0  0  0
  9 30  1  0  0  0  0
  9 31  1  0  0  0  0
 10 11  1  0  0  0  0
 10 32  1  0  0  0  0
 10 33  1  0  0  0  0
 11 12  2  0  0  0  0
 11 13  1  0  0  0  0
 13 14  1  0  0  0  0
 13 34  1  0  0  0  0
 14 15  2  0  0  0  0
 14 19  1  0  0  0  0
 15 16  1  0  0  0  0
 15 35  1  0  0  0  0
 16 17  2  0  0  0  0
 16 36  1  0  0  0  0
 17 18  1  0  0  0  0
 17 37  1  0  0  0  0
 18 19  2  0  0  0  0
 18 38  1  0  0  0  0
 19 39  1  0  0  0  0
M  END
