4cxx_ligand
 OpenBabel08222323353D

 52 53  0  0  0  0  0  0  0  0999 V2000
   33.9560   -7.1640  725.8230 O   0  5  0  0  0  0  0  0  0  0  0  0
   33.8660   -7.5210  724.6360 C   0  0  0  0  0  0  0  0  0  0  0  0
   34.3740   -8.5820  724.2550 O   0  0  0  0  0  0  0  0  0  0  0  0
   33.1040   -6.6660  723.6680 C   0  0  0  0  0  0  0  0  0  0  0  0
   32.0010   -7.5870  723.1180 C   0  0  0  0  0  0  0  0  0  0  0  0
   31.1780   -6.9080  722.0750 C   0  0  0  0  0  0  0  0  0  0  0  0
   31.4940   -5.7980  721.6390 O   0  0  0  0  0  0  0  0  0  0  0  0
   30.0150   -7.6020  721.6530 N   0  0  0  0  0  0  0  0  0  0  0  0
   29.2100   -6.9740  720.7230 N   0  0  0  0  0  0  0  0  0  0  0  0
   28.8330   -7.6490  719.4830 C   0  0  0  0  0  0  0  0  0  0  0  0
   29.1760   -8.7690  719.2460 O   0  0  0  0  0  0  0  0  0  0  0  0
   27.9360   -6.9590  718.5090 C   0  0  0  0  0  0  0  0  0  0  0  0
   26.5980   -6.8540  718.8200 C   0  0  0  0  0  0  0  0  0  0  0  0
   25.7490   -6.2690  717.9860 N   0  0  0  0  0  0  0  0  0  0  0  0
   26.1880   -5.7820  716.8090 C   0  0  0  0  0  0  0  0  0  0  0  0
   27.5270   -5.8560  716.4030 C   0  0  0  0  0  0  0  0  0  0  0  0
   28.4400   -6.5050  717.2730 C   0  0  0  0  0  0  0  0  0  0  0  0
   29.9670   -6.6440  716.9960 C   0  0  0  0  0  0  0  0  0  0  0  0
   30.3880   -6.9860  715.5420 C   0  0  0  0  0  0  0  0  0  0  0  0
   30.3450   -8.2780  715.0620 C   0  0  0  0  0  0  0  0  0  0  0  0
   30.7990   -8.5000  713.7680 C   0  0  0  0  0  0  0  0  0  0  0  0
   31.2840   -7.4490  713.0040 C   0  0  0  0  0  0  0  0  0  0  0  0
   31.7810   -7.5900  711.5370 C   0  0  0  0  0  0  0  0  0  0  0  0
   32.0490   -9.0510  711.3000 C   0  0  0  0  0  0  0  0  0  0  0  0
   30.7860   -7.0280  710.5520 C   0  0  0  0  0  0  0  0  0  0  0  0
   33.1480   -6.8630  711.3610 C   0  0  0  0  0  0  0  0  0  0  0  0
   31.3230   -6.1770  713.5270 C   0  0  0  0  0  0  0  0  0  0  0  0
   30.8860   -5.9390  714.8030 C   0  0  0  0  0  0  0  0  0  0  0  0
   33.7605   -6.3195  722.8563 H   0  0  0  0  0  0  0  0  0  0  0  0
   32.6644   -5.7974  724.1802 H   0  0  0  0  0  0  0  0  0  0  0  0
   31.3447   -7.8903  723.9470 H   0  0  0  0  0  0  0  0  0  0  0  0
   32.4697   -8.4787  722.6763 H   0  0  0  0  0  0  0  0  0  0  0  0
   29.7879   -8.5068  722.0133 H   0  0  0  0  0  0  0  0  0  0  0  0
   28.8812   -6.0464  720.9003 H   0  0  0  0  0  0  0  0  0  0  0  0
   26.2343   -7.2550  719.7591 H   0  0  0  0  0  0  0  0  0  0  0  0
   25.4720   -5.3110  716.1452 H   0  0  0  0  0  0  0  0  0  0  0  0
   27.8528   -5.4332  715.4595 H   0  0  0  0  0  0  0  0  0  0  0  0
   30.3523   -7.4404  717.6496 H   0  0  0  0  0  0  0  0  0  0  0  0
   30.4417   -5.6884  717.2634 H   0  0  0  0  0  0  0  0  0  0  0  0
   29.9703   -9.0915  715.6727 H   0  0  0  0  0  0  0  0  0  0  0  0
   30.7740   -9.5010  713.3528 H   0  0  0  0  0  0  0  0  0  0  0  0
   32.4043   -9.1961  710.2691 H   0  0  0  0  0  0  0  0  0  0  0  0
   31.1220   -9.6233  711.4523 H   0  0  0  0  0  0  0  0  0  0  0  0
   32.8167   -9.4021  712.0052 H   0  0  0  0  0  0  0  0  0  0  0  0
   30.6227   -5.9611  710.7642 H   0  0  0  0  0  0  0  0  0  0  0  0
   29.8332   -7.5700  710.6435 H   0  0  0  0  0  0  0  0  0  0  0  0
   31.1766   -7.1430  709.5302 H   0  0  0  0  0  0  0  0  0  0  0  0
   33.8753   -7.2711  712.0783 H   0  0  0  0  0  0  0  0  0  0  0  0
   33.0170   -5.7863  711.5442 H   0  0  0  0  0  0  0  0  0  0  0  0
   33.5167   -7.0184  710.3364 H   0  0  0  0  0  0  0  0  0  0  0  0
   31.7018   -5.3585  712.9257 H   0  0  0  0  0  0  0  0  0  0  0  0
   30.9320   -4.9410  715.2236 H   0  0  0  0  0  0  0  0  0  0  0  0
  1  2  1  0  0  0  0
  2  3  2  0  0  0  0
  2  4  1  0  0  0  0
  4  5  1  0  0  0  0
  4 29  1  0  0  0  0
  4 30  1  0  0  0  0
  5  6  1  0  0  0  0
  5 31  1  0  0  0  0
  5 32  1  0  0  0  0
  6  7  2  0  0  0  0
  6  8  1  0  0  0  0
  8  9  1  0  0  0  0
  8 33  1  0  0  0  0
  9 10  1  0  0  0  0
  9 34  1  0  0  0  0
 10 11  2  0  0  0  0
 10 12  1  0  0  0  0
 12 13  2  0  0  0  0
 12 17  1  0  0  0  0
 13 14  1  0  0  0  0
 13 35  1  0  0  0  0
 14 15  2  0  0  0  0
 15 16  1  0  0  0  0
 15 36  1  0  0  0  0
 16 17  2  0  0  0  0
 16 37  1  0  0  0  0
 17 18  1  0  0  0  0
 18 19  1  0  0  0  0
 18 38  1  0  0  0  0
 18 39  1  0  0  0  0
 19 20  2  0  0  0  0
 19 28  1  0  0  0  0
 20 21  1  0  0  0  0
 20 40  1  0  0  0  0
 21 22  2  0  0  0  0
 21 41  1  0  0  0  0
 22 23  1  0  0  0  0
 22 27  1  0  0  0  0
 23 24  1  0  0  0  0
 23 25  1  0  0  0  0
 23 26  1  0  0  0  0
 24 42  1  0  0  0  0
 24 43  1  0  0  0  0
 24 44  1  0  0  0  0
 25 45  1  0  0  0  0
 25 46  1  0  0  0  0
 25 47  1  0  0  0  0
 26 48  1  0  0  0  0
 26 49  1  0  0  0  0
 26 50  1  0  0  0  0
 27 28  2  0  0  0  0
 27 51  1  0  0  0  0
 28 52  1  0  0  0  0
M  CHG  1   1  -1
M  END
