4d09_ligand
 OpenBabel08222323353D

 49 53  0  0  0  0  0  0  0  0999 V2000
   37.4020  -25.1420   24.6430 O   0  0  0  0  0  0  0  0  0  0  0  0
   37.2210  -24.5530   25.7090 C   0  0  0  0  0  0  0  0  0  0  0  0
   37.5590  -23.2720   25.8860 N   0  0  0  0  0  0  0  0  0  0  0  0
   38.4190  -22.5530   24.9590 C   0  0  0  0  0  0  0  0  0  0  0  0
   37.6270  -21.8460   23.8900 C   0  0  0  0  0  0  0  0  0  0  0  0
   36.5670  -21.0220   24.2310 C   0  0  0  0  0  0  0  0  0  0  0  0
   35.7930  -20.4210   23.2540 C   0  0  0  0  0  0  0  0  0  0  0  0
   36.0720  -20.6330   21.9210 C   0  0  0  0  0  0  0  0  0  0  0  0
   37.1310  -21.4450   21.5670 C   0  0  0  0  0  0  0  0  0  0  0  0
   37.9050  -22.0450   22.5460 C   0  0  0  0  0  0  0  0  0  0  0  0
   36.5950  -25.2460   26.8790 C   0  0  0  0  0  0  0  0  0  0  0  0
   37.0120  -24.9190   28.1610 C   0  0  0  0  0  0  0  0  0  0  0  0
   35.5700  -26.1690   26.7110 C   0  0  0  0  0  0  0  0  0  0  0  0
   34.9680  -26.7710   27.8180 C   0  0  0  0  0  0  0  0  0  0  0  0
   33.8820  -27.6900   27.7080 N   0  0  0  0  0  0  0  0  0  0  0  0
   33.1840  -28.3170   26.6900 C   0  0  0  0  0  0  0  0  0  0  0  0
   33.4950  -28.2710   25.2460 C   0  0  0  0  0  0  0  0  0  0  0  0
   34.7840  -28.5250   24.7830 C   0  0  0  0  0  0  0  0  0  0  0  0
   35.0650  -28.4820   23.4270 C   0  0  0  0  0  0  0  0  0  0  0  0
   34.0710  -28.1910   22.5190 C   0  0  0  0  0  0  0  0  0  0  0  0
   32.7910  -27.9430   22.9620 C   0  0  0  0  0  0  0  0  0  0  0  0
   32.4980  -27.9840   24.3140 C   0  0  0  0  0  0  0  0  0  0  0  0
   32.2250  -29.0570   27.1980 N   0  0  0  0  0  0  0  0  0  0  0  0
   32.2890  -28.9610   28.5870 N   0  0  0  0  0  0  0  0  0  0  0  0
   33.2890  -28.1530   28.8800 C   0  0  0  0  0  0  0  0  0  0  0  0
   33.8100  -27.7590   30.1590 C   0  0  0  0  0  0  0  0  0  0  0  0
   33.2040  -28.3440   31.3910 C   0  0  0  0  0  0  0  0  0  0  0  0
   34.8060  -26.9500   30.2640 N   0  0  0  0  0  0  0  0  0  0  0  0
   35.3950  -26.4280   29.1180 C   0  0  0  0  0  0  0  0  0  0  0  0
   36.4220  -25.4980   29.2680 C   0  0  0  0  0  0  0  0  0  0  0  0
   37.2067  -22.7887   26.6875 H   0  0  0  0  0  0  0  0  0  0  0  0
   39.1026  -23.2693   24.4798 H   0  0  0  0  0  0  0  0  0  0  0  0
   39.0026  -21.8083   25.5201 H   0  0  0  0  0  0  0  0  0  0  0  0
   36.3410  -20.8458   25.2764 H   0  0  0  0  0  0  0  0  0  0  0  0
   34.9649  -19.7817   23.5378 H   0  0  0  0  0  0  0  0  0  0  0  0
   35.4638  -20.1651   21.1554 H   0  0  0  0  0  0  0  0  0  0  0  0
   37.3571  -21.6132   20.5203 H   0  0  0  0  0  0  0  0  0  0  0  0
   38.7374  -22.6772   22.2587 H   0  0  0  0  0  0  0  0  0  0  0  0
   37.8115  -24.1995   28.2960 H   0  0  0  0  0  0  0  0  0  0  0  0
   35.2348  -26.4239   25.7121 H   0  0  0  0  0  0  0  0  0  0  0  0
   35.5730  -28.7580   25.4888 H   0  0  0  0  0  0  0  0  0  0  0  0
   36.0726  -28.6784   23.0788 H   0  0  0  0  0  0  0  0  0  0  0  0
   34.2956  -28.1573   21.4591 H   0  0  0  0  0  0  0  0  0  0  0  0
   32.0084  -27.7143   22.2477 H   0  0  0  0  0  0  0  0  0  0  0  0
   31.4859  -27.7916   24.6511 H   0  0  0  0  0  0  0  0  0  0  0  0
   33.7147  -27.9407   32.2779 H   0  0  0  0  0  0  0  0  0  0  0  0
   33.3147  -29.4382   31.3701 H   0  0  0  0  0  0  0  0  0  0  0  0
   32.1360  -28.0842   31.4332 H   0  0  0  0  0  0  0  0  0  0  0  0
   36.7607  -25.2267   30.2613 H   0  0  0  0  0  0  0  0  0  0  0  0
  1  2  2  0  0  0  0
  2  3  1  0  0  0  0
  2 11  1  0  0  0  0
  3  4  1  0  0  0  0
  3 31  1  0  0  0  0
  4  5  1  0  0  0  0
  4 32  1  0  0  0  0
  4 33  1  0  0  0  0
  5  6  2  0  0  0  0
  5 10  1  0  0  0  0
  6  7  1  0  0  0  0
  6 34  1  0  0  0  0
  7  8  2  0  0  0  0
  7 35  1  0  0  0  0
  8  9  1  0  0  0  0
  8 36  1  0  0  0  0
  9 10  2  0  0  0  0
  9 37  1  0  0  0  0
 10 38  1  0  0  0  0
 11 12  2  0  0  0  0
 11 13  1  0  0  0  0
 12 30  1  0  0  0  0
 12 39  1  0  0  0  0
 13 14  2  0  0  0  0
 13 40  1  0  0  0  0
 14 15  1  0  0  0  0
 14 29  1  0  0  0  0
 15 16  1  0  0  0  0
 15 25  1  0  0  0  0
 16 17  1  0  0  0  0
 16 23  2  0  0  0  0
 17 18  2  0  0  0  0
 17 22  1  0  0  0  0
 18 19  1  0  0  0  0
 18 41  1  0  0  0  0
 19 20  2  0  0  0  0
 19 42  1  0  0  0  0
 20 21  1  0  0  0  0
 20 43  1  0  0  0  0
 21 22  2  0  0  0  0
 21 44  1  0  0  0  0
 22 45  1  0  0  0  0
 23 24  1  0  0  0  0
 24 25  2  0  0  0  0
 25 26  1  0  0  0  0
 26 27  1  0  0  0  0
 26 28  2  0  0  0  0
 27 46  1  0  0  0  0
 27 47  1  0  0  0  0
 27 48  1  0  0  0  0
 28 29  1  0  0  0  0
 29 30  2  0  0  0  0
 30 49  1  0  0  0  0
M  END
