4d1c_ligand
 OpenBabel08222323353D

 22 23  0  0  0  0  0  0  0  0999 V2000
    4.2330   12.1670  -24.6780 N   0  0  0  0  0  0  0  0  0  0  0  0
    3.1930   11.7400  -25.4370 C   0  0  0  0  0  0  0  0  0  0  0  0
    2.4740   10.5800  -25.3200 C   0  0  0  0  0  0  0  0  0  0  0  0
    2.4930    9.7120  -24.1050 C   0  0  0  0  0  0  0  0  0  0  0  0
    2.7670   10.2230  -22.8410 C   0  0  0  0  0  0  0  0  0  0  0  0
    2.7760    9.4010  -21.7240 C   0  0  0  0  0  0  0  0  0  0  0  0
    2.5070    8.0520  -21.8480 C   0  0  0  0  0  0  0  0  0  0  0  0
    2.2280    7.5310  -23.0990 C   0  0  0  0  0  0  0  0  0  0  0  0
    2.2200    8.3530  -24.2150 C   0  0  0  0  0  0  0  0  0  0  0  0
    3.0280   12.7800  -26.3890 C   0  0  0  0  0  0  0  0  0  0  0  0
    3.9840   13.6810  -26.0680 N   0  0  0  0  0  0  0  0  0  0  0  0
    4.7330   13.3390  -25.0330 C   0  0  0  0  0  0  0  0  0  0  0  0
    1.8470    5.6400  -23.2940 Br  0  0  0  0  0  0  0  0  0  0  0  0
    5.6600   13.9540  -24.5280 O   0  0  0  0  0  0  0  0  0  0  0  0
    2.2120   12.8570  -27.2950 O   0  0  0  0  0  0  0  0  0  0  0  0
    2.8024    9.9388  -26.1513 H   0  0  0  0  0  0  0  0  0  0  0  0
    1.4217   10.8635  -25.4691 H   0  0  0  0  0  0  0  0  0  0  0  0
    2.9768   11.2804  -22.7270 H   0  0  0  0  0  0  0  0  0  0  0  0
    2.9953    9.8195  -20.7484 H   0  0  0  0  0  0  0  0  0  0  0  0
    2.5144    7.4089  -20.9754 H   0  0  0  0  0  0  0  0  0  0  0  0
    1.9976    7.9301  -25.1880 H   0  0  0  0  0  0  0  0  0  0  0  0
    4.1139   14.5352  -26.5715 H   0  0  0  0  0  0  0  0  0  0  0  0
  1  2  2  0  0  0  0
  1 12  1  0  0  0  0
  2  3  1  0  0  0  0
  2 10  1  0  0  0  0
  3  4  1  0  0  0  0
  3 16  1  0  0  0  0
  3 17  1  0  0  0  0
  4  5  2  0  0  0  0
  4  9  1  0  0  0  0
  5  6  1  0  0  0  0
  5 18  1  0  0  0  0
  6  7  2  0  0  0  0
  6 19  1  0  0  0  0
  7  8  1  0  0  0  0
  7 20  1  0  0  0  0
  8  9  2  0  0  0  0
  8 13  1  0  0  0  0
  9 21  1  0  0  0  0
 10 11  1  0  0  0  0
 10 15  2  0  0  0  0
 11 12  1  0  0  0  0
 11 22  1  0  0  0  0
 12 14  2  0  0  0  0
M  END
