4d2r_ligand
 OpenBabel08222323353D

 59 63  0  0  1  0  0  0  0  0999 V2000
    1.5100   -3.9800   53.1740 C   0  0  0  0  0  0  0  0  0  0  0  0
    2.6870   -3.8130   52.3120 N   0  3  1  0  0  0  0  0  0  0  0  0
    6.2150   -4.7410   52.6610 O   0  0  0  0  0  0  0  0  0  0  0  0
    3.6950   -2.9800   52.9710 C   0  0  0  0  0  0  0  0  0  0  0  0
   10.6190   -2.4560   55.2000 N   0  0  0  0  0  0  0  0  0  0  0  0
    8.3600   -3.0100   56.5320 O   0  0  0  0  0  0  0  0  0  0  0  0
    4.8950   -2.7270   52.0490 C   0  0  0  0  0  0  0  0  0  0  0  0
   12.6720   -1.4290   55.5940 N   0  0  0  0  0  0  0  0  0  0  0  0
    5.4910   -4.0420   51.5790 C   0  0  2  0  0  0  0  0  0  0  0  0
   12.4610   -3.3250   54.1240 N   0  0  0  0  0  0  0  0  0  0  0  0
    4.4360   -4.9590   50.9950 C   0  0  0  0  0  0  0  0  0  0  0  0
   15.7300   -5.4660   51.6780 N   0  0  0  0  0  0  0  0  0  0  0  0
    3.2660   -5.1130   51.9710 C   0  0  0  0  0  0  0  0  0  0  0  0
   12.7640   -7.4830   50.6990 N   0  0  0  0  0  0  0  0  0  0  0  0
    7.3560   -4.1680   53.1860 C   0  0  0  0  0  0  0  0  0  0  0  0
    8.5440   -3.9600   52.4970 C   0  0  0  0  0  0  0  0  0  0  0  0
    9.6250   -3.3810   53.1430 C   0  0  0  0  0  0  0  0  0  0  0  0
    9.5530   -3.0690   54.5000 C   0  0  0  0  0  0  0  0  0  0  0  0
    8.3340   -3.3100   55.1970 C   0  0  0  0  0  0  0  0  0  0  0  0
    7.2550   -3.8830   54.5410 C   0  0  0  0  0  0  0  0  0  0  0  0
    7.2150   -3.3580   57.3240 C   0  0  0  0  0  0  0  0  0  0  0  0
   11.9650   -2.3960   54.9630 C   0  0  0  0  0  0  0  0  0  0  0  0
   13.9870   -1.4190   55.3340 C   0  0  0  0  0  0  0  0  0  0  0  0
   14.6030   -2.3220   54.4860 C   0  0  0  0  0  0  0  0  0  0  0  0
   13.7830   -3.2760   53.8910 C   0  0  0  0  0  0  0  0  0  0  0  0
   14.3220   -4.2770   52.9690 C   0  0  0  0  0  0  0  0  0  0  0  0
   15.6230   -4.4180   52.5540 C   0  0  0  0  0  0  0  0  0  0  0  0
   14.4890   -6.0350   51.4910 C   0  0  0  0  0  0  0  0  0  0  0  0
   13.5640   -5.3210   52.2780 C   0  0  0  0  0  0  0  0  0  0  0  0
   12.2260   -5.7130   52.2580 C   0  0  0  0  0  0  0  0  0  0  0  0
   11.8910   -6.7930   51.4530 C   0  0  0  0  0  0  0  0  0  0  0  0
   14.0500   -7.1070   50.7150 C   0  0  0  0  0  0  0  0  0  0  0  0
    1.0911   -2.9926   53.4179 H   0  0  0  0  0  0  0  0  0  0  0  0
    1.8046   -4.4926   54.1016 H   0  0  0  0  0  0  0  0  0  0  0  0
    0.7526   -4.5799   52.6482 H   0  0  0  0  0  0  0  0  0  0  0  0
    2.3975   -3.3562   51.4614 H   0  0  0  0  0  0  0  0  0  0  0  0
    4.0432   -3.4905   53.8810 H   0  0  0  0  0  0  0  0  0  0  0  0
    3.2415   -2.0153   53.2425 H   0  0  0  0  0  0  0  0  0  0  0  0
   10.3247   -1.9589   56.0528 H   0  0  0  0  0  0  0  0  0  0  0  0
    5.6600   -2.1587   52.5982 H   0  0  0  0  0  0  0  0  0  0  0  0
    4.5641   -2.1467   51.1751 H   0  0  0  0  0  0  0  0  0  0  0  0
    6.2151   -3.8103   50.7840 H   0  0  0  0  0  0  0  0  0  0  0  0
    4.8801   -5.9467   50.8024 H   0  0  0  0  0  0  0  0  0  0  0  0
    4.0669   -4.5324   50.0507 H   0  0  0  0  0  0  0  0  0  0  0  0
   16.6023   -5.7797   51.2291 H   0  0  0  0  0  0  0  0  0  0  0  0
    2.4911   -5.7402   51.5061 H   0  0  0  0  0  0  0  0  0  0  0  0
    3.6270   -5.5973   52.8903 H   0  0  0  0  0  0  0  0  0  0  0  0
    8.6256   -4.2500   51.4557 H   0  0  0  0  0  0  0  0  0  0  0  0
   10.5326   -3.1693   52.5894 H   0  0  0  0  0  0  0  0  0  0  0  0
    6.3418   -4.1062   55.0808 H   0  0  0  0  0  0  0  0  0  0  0  0
    7.3855   -3.0554   58.3677 H   0  0  0  0  0  0  0  0  0  0  0  0
    7.0548   -4.4453   57.2790 H   0  0  0  0  0  0  0  0  0  0  0  0
    6.3271   -2.8400   56.9324 H   0  0  0  0  0  0  0  0  0  0  0  0
   14.5997   -0.6640   55.8132 H   0  0  0  0  0  0  0  0  0  0  0  0
   15.6695   -2.2882   54.2949 H   0  0  0  0  0  0  0  0  0  0  0  0
   16.4509   -3.7875   52.8749 H   0  0  0  0  0  0  0  0  0  0  0  0
   11.4778   -5.1953   52.8472 H   0  0  0  0  0  0  0  0  0  0  0  0
   10.8521   -7.1017   51.4308 H   0  0  0  0  0  0  0  0  0  0  0  0
   14.7669   -7.6497   50.1096 H   0  0  0  0  0  0  0  0  0  0  0  0
  1 33  1  0  0  0  0
  1 34  1  0  0  0  0
  1 35  1  0  0  0  0
  2  1  1  0  0  0  0
  2 36  1  6  0  0  0
  3  9  1  0  0  0  0
  4  2  1  0  0  0  0
  4 37  1  0  0  0  0
  4 38  1  0  0  0  0
  5 18  1  0  0  0  0
  5 39  1  0  0  0  0
  6 21  1  0  0  0  0
  7  4  1  0  0  0  0
  7 40  1  0  0  0  0
  7 41  1  0  0  0  0
  9  7  1  0  0  0  0
  9 11  1  0  0  0  0
  9 42  1  6  0  0  0
 10 22  1  0  0  0  0
 11 13  1  0  0  0  0
 11 43  1  0  0  0  0
 11 44  1  0  0  0  0
 12 27  1  0  0  0  0
 12 45  1  0  0  0  0
 13  2  1  0  0  0  0
 13 46  1  0  0  0  0
 13 47  1  0  0  0  0
 14 31  2  0  0  0  0
 15  3  1  0  0  0  0
 16 15  2  0  0  0  0
 16 48  1  0  0  0  0
 17 16  1  0  0  0  0
 17 49  1  0  0  0  0
 18 17  2  0  0  0  0
 18 19  1  0  0  0  0
 19  6  1  0  0  0  0
 19 20  2  0  0  0  0
 20 15  1  0  0  0  0
 20 50  1  0  0  0  0
 21 51  1  0  0  0  0
 21 52  1  0  0  0  0
 21 53  1  0  0  0  0
 22  5  1  0  0  0  0
 22  8  2  0  0  0  0
 23  8  1  0  0  0  0
 23 54  1  0  0  0  0
 24 23  2  0  0  0  0
 24 55  1  0  0  0  0
 25 10  2  0  0  0  0
 25 24  1  0  0  0  0
 26 25  1  0  0  0  0
 26 27  2  0  0  0  0
 27 56  1  0  0  0  0
 28 12  1  0  0  0  0
 28 29  1  0  0  0  0
 28 32  2  0  0  0  0
 29 26  1  0  0  0  0
 29 30  2  0  0  0  0
 30 31  1  0  0  0  0
 30 57  1  0  0  0  0
 31 58  1  0  0  0  0
 32 14  1  0  0  0  0
 32 59  1  0  0  0  0
M  CHG  1   2   1
M  END
