4d2s_ligand
 OpenBabel08222323353D

 59 63  0  0  1  0  0  0  0  0999 V2000
   -3.6250   14.3810    1.2300 C   0  0  0  0  0  0  0  0  0  0  0  0
   -3.5830   15.5740    0.3900 N   0  3  1  0  0  0  0  0  0  0  0  0
   -3.7270   19.1780    1.0780 O   0  0  0  0  0  0  0  0  0  0  0  0
   -4.7970   16.3690    0.5630 C   0  0  0  0  0  0  0  0  0  0  0  0
   -6.1420   24.1570    0.3580 N   0  0  0  0  0  0  0  0  0  0  0  0
   -3.4780   23.9600    0.4260 O   0  0  0  0  0  0  0  0  0  0  0  0
   -4.8100   17.5660   -0.3870 C   0  0  0  0  0  0  0  0  0  0  0  0
   -7.7080   25.7100   -0.4360 N   0  0  0  0  0  0  0  0  0  0  0  0
   -3.5740   18.4200   -0.1810 C   0  0  2  0  0  0  0  0  0  0  0  0
   -7.8520   23.3630   -0.9290 N   0  0  0  0  0  0  0  0  0  0  0  0
   -2.3040   17.5950   -0.2340 C   0  0  0  0  0  0  0  0  0  0  0  0
   -9.9230   20.2860   -2.9340 N   0  0  0  0  0  0  0  0  0  0  0  0
   -2.4110   16.3910    0.7080 C   0  0  0  0  0  0  0  0  0  0  0  0
  -13.1200   21.5040   -4.3950 N   0  0  0  0  0  0  0  0  0  0  0  0
   -4.3280   20.4080    0.9070 C   0  0  0  0  0  0  0  0  0  0  0  0
   -5.7160   20.4980    0.8890 C   0  0  0  0  0  0  0  0  0  0  0  0
   -6.3270   21.7270    0.7200 C   0  0  0  0  0  0  0  0  0  0  0  0
   -5.5580   22.8790    0.5390 C   0  0  0  0  0  0  0  0  0  0  0  0
   -4.1460   22.7740    0.5750 C   0  0  0  0  0  0  0  0  0  0  0  0
   -3.5370   21.5420    0.7770 C   0  0  0  0  0  0  0  0  0  0  0  0
   -2.0610   23.9640    0.6140 C   0  0  0  0  0  0  0  0  0  0  0  0
   -7.2740   24.4360   -0.3550 C   0  0  0  0  0  0  0  0  0  0  0  0
   -8.8210   25.8930   -1.1710 C   0  0  0  0  0  0  0  0  0  0  0  0
   -9.4950   24.8620   -1.7990 C   0  0  0  0  0  0  0  0  0  0  0  0
   -8.9610   23.5880   -1.6490 C   0  0  0  0  0  0  0  0  0  0  0  0
   -9.5840   22.4070   -2.2650 C   0  0  0  0  0  0  0  0  0  0  0  0
   -9.0710   21.1330   -2.2780 C   0  0  0  0  0  0  0  0  0  0  0  0
  -11.0250   20.9910   -3.3680 C   0  0  0  0  0  0  0  0  0  0  0  0
  -10.8600   22.3340   -2.9760 C   0  0  0  0  0  0  0  0  0  0  0  0
  -11.8520   23.2520   -3.3100 C   0  0  0  0  0  0  0  0  0  0  0  0
  -12.9500   22.7820   -4.0190 C   0  0  0  0  0  0  0  0  0  0  0  0
  -12.1640   20.6180   -4.0760 C   0  0  0  0  0  0  0  0  0  0  0  0
   -4.5123   13.7834    0.9740 H   0  0  0  0  0  0  0  0  0  0  0  0
   -3.6763   14.6788    2.2877 H   0  0  0  0  0  0  0  0  0  0  0  0
   -2.7182   13.7817    1.0614 H   0  0  0  0  0  0  0  0  0  0  0  0
   -3.5218   15.2838   -0.5734 H   0  0  0  0  0  0  0  0  0  0  0  0
   -4.8436   16.7328    1.6000 H   0  0  0  0  0  0  0  0  0  0  0  0
   -5.6731   15.7368    0.3564 H   0  0  0  0  0  0  0  0  0  0  0  0
   -5.6674   24.9531    0.8074 H   0  0  0  0  0  0  0  0  0  0  0  0
   -5.7063   18.1732   -0.1922 H   0  0  0  0  0  0  0  0  0  0  0  0
   -4.8310   17.2039   -1.4255 H   0  0  0  0  0  0  0  0  0  0  0  0
   -3.5218   19.1469   -1.0049 H   0  0  0  0  0  0  0  0  0  0  0  0
   -1.4523   18.2202    0.0720 H   0  0  0  0  0  0  0  0  0  0  0  0
   -2.1461   17.2379   -1.2624 H   0  0  0  0  0  0  0  0  0  0  0  0
   -9.7652   19.2788   -3.0805 H   0  0  0  0  0  0  0  0  0  0  0  0
   -1.5055   15.7746    0.6070 H   0  0  0  0  0  0  0  0  0  0  0  0
   -2.4952   16.7519    1.7437 H   0  0  0  0  0  0  0  0  0  0  0  0
   -6.3187   19.6048    1.0074 H   0  0  0  0  0  0  0  0  0  0  0  0
   -7.4087   21.7968    0.7280 H   0  0  0  0  0  0  0  0  0  0  0  0
   -2.4570   21.4666    0.8325 H   0  0  0  0  0  0  0  0  0  0  0  0
   -1.6738   24.9822    0.4613 H   0  0  0  0  0  0  0  0  0  0  0  0
   -1.5930   23.2813   -0.1105 H   0  0  0  0  0  0  0  0  0  0  0  0
   -1.8257   23.6317    1.6359 H   0  0  0  0  0  0  0  0  0  0  0  0
   -9.2085   26.9000   -1.2758 H   0  0  0  0  0  0  0  0  0  0  0  0
  -10.3939   25.0385   -2.3786 H   0  0  0  0  0  0  0  0  0  0  0  0
   -8.1227   20.8390   -1.8307 H   0  0  0  0  0  0  0  0  0  0  0  0
  -11.7704   24.2953   -3.0271 H   0  0  0  0  0  0  0  0  0  0  0  0
  -13.7216   23.4947   -4.2869 H   0  0  0  0  0  0  0  0  0  0  0  0
  -12.2819   19.5836   -4.3779 H   0  0  0  0  0  0  0  0  0  0  0  0
  1 33  1  0  0  0  0
  1 34  1  0  0  0  0
  1 35  1  0  0  0  0
  2  1  1  0  0  0  0
  2 36  1  6  0  0  0
  3  9  1  0  0  0  0
  4  2  1  0  0  0  0
  4 37  1  0  0  0  0
  4 38  1  0  0  0  0
  5 18  1  0  0  0  0
  5 39  1  0  0  0  0
  6 21  1  0  0  0  0
  7  4  1  0  0  0  0
  7 40  1  0  0  0  0
  7 41  1  0  0  0  0
  9  7  1  0  0  0  0
  9 11  1  0  0  0  0
  9 42  1  6  0  0  0
 10 22  1  0  0  0  0
 11 13  1  0  0  0  0
 11 43  1  0  0  0  0
 11 44  1  0  0  0  0
 12 27  1  0  0  0  0
 12 45  1  0  0  0  0
 13  2  1  0  0  0  0
 13 46  1  0  0  0  0
 13 47  1  0  0  0  0
 14 31  2  0  0  0  0
 15  3  1  0  0  0  0
 16 15  2  0  0  0  0
 16 48  1  0  0  0  0
 17 16  1  0  0  0  0
 17 49  1  0  0  0  0
 18 17  2  0  0  0  0
 18 19  1  0  0  0  0
 19  6  1  0  0  0  0
 19 20  2  0  0  0  0
 20 15  1  0  0  0  0
 20 50  1  0  0  0  0
 21 51  1  0  0  0  0
 21 52  1  0  0  0  0
 21 53  1  0  0  0  0
 22  5  1  0  0  0  0
 22  8  2  0  0  0  0
 23  8  1  0  0  0  0
 23 54  1  0  0  0  0
 24 23  2  0  0  0  0
 24 55  1  0  0  0  0
 25 10  2  0  0  0  0
 25 24  1  0  0  0  0
 26 25  1  0  0  0  0
 26 27  2  0  0  0  0
 27 56  1  0  0  0  0
 28 12  1  0  0  0  0
 28 29  1  0  0  0  0
 28 32  2  0  0  0  0
 29 26  1  0  0  0  0
 29 30  2  0  0  0  0
 30 31  1  0  0  0  0
 30 57  1  0  0  0  0
 31 58  1  0  0  0  0
 32 14  1  0  0  0  0
 32 59  1  0  0  0  0
M  CHG  1   2   1
M  END
