4d2v_ligand
 OpenBabel08222323353D

 50 53  0  0  0  0  0  0  0  0999 V2000
  -12.4890  -40.7660  -20.9420 C   0  0  0  0  0  0  0  0  0  0  0  0
  -11.6200  -40.6800  -19.8160 O   0  0  0  0  0  0  0  0  0  0  0  0
  -10.8020  -41.7450  -19.5420 C   0  0  0  0  0  0  0  0  0  0  0  0
  -10.9400  -43.0060  -20.1150 C   0  0  0  0  0  0  0  0  0  0  0  0
  -10.0790  -44.0490  -19.7900 C   0  0  0  0  0  0  0  0  0  0  0  0
   -9.0740  -43.8060  -18.8580 C   0  0  0  0  0  0  0  0  0  0  0  0
   -8.9230  -42.5660  -18.2760 C   0  0  0  0  0  0  0  0  0  0  0  0
   -9.7680  -41.5060  -18.6070 C   0  0  0  0  0  0  0  0  0  0  0  0
   -9.4670  -40.2170  -17.8840 C   0  0  0  0  0  0  0  0  0  0  0  0
   -8.7180  -40.1900  -16.9110 O   0  0  0  0  0  0  0  0  0  0  0  0
  -10.0500  -39.1000  -18.3580 N   0  0  0  0  0  0  0  0  0  0  0  0
  -10.1970  -37.8410  -17.7410 C   0  0  0  0  0  0  0  0  0  0  0  0
   -9.4030  -37.3130  -16.7370 C   0  0  0  0  0  0  0  0  0  0  0  0
   -9.6530  -36.0410  -16.2480 C   0  0  0  0  0  0  0  0  0  0  0  0
  -10.6920  -35.2670  -16.7650 C   0  0  0  0  0  0  0  0  0  0  0  0
  -10.9400  -33.9060  -16.1610 C   0  0  0  0  0  0  0  0  0  0  0  0
  -10.9580  -32.7050  -17.0930 C   0  0  0  0  0  0  0  0  0  0  0  0
  -12.1640  -32.6220  -17.9710 N   0  3  0  0  0  0  0  0  0  0  0  0
  -12.3390  -33.7130  -18.9790 C   0  0  0  0  0  0  0  0  0  0  0  0
  -12.6830  -35.0610  -18.3600 C   0  0  0  0  0  0  0  0  0  0  0  0
  -11.5080  -35.8030  -17.7700 C   0  0  0  0  0  0  0  0  0  0  0  0
  -11.2390  -37.0810  -18.2510 C   0  0  0  0  0  0  0  0  0  0  0  0
  -10.2540  -45.3950  -20.3750 C   0  0  0  0  0  0  0  0  0  0  0  0
  -11.3150  -45.8600  -21.1480 C   0  0  0  0  0  0  0  0  0  0  0  0
  -11.1420  -47.1340  -21.4850 N   0  0  0  0  0  0  0  0  0  0  0  0
   -9.9700  -47.4930  -20.9150 N   0  0  0  0  0  0  0  0  0  0  0  0
   -9.4110  -46.4820  -20.2420 C   0  0  0  0  0  0  0  0  0  0  0  0
  -13.0746  -39.8385  -21.0249 H   0  0  0  0  0  0  0  0  0  0  0  0
  -13.1707  -41.6198  -20.8147 H   0  0  0  0  0  0  0  0  0  0  0  0
  -11.8926  -40.9059  -21.8556 H   0  0  0  0  0  0  0  0  0  0  0  0
  -11.7360  -43.1790  -20.8302 H   0  0  0  0  0  0  0  0  0  0  0  0
   -8.3972  -44.6075  -18.5848 H   0  0  0  0  0  0  0  0  0  0  0  0
   -8.1343  -42.4114  -17.5486 H   0  0  0  0  0  0  0  0  0  0  0  0
  -10.4333  -39.1738  -19.2787 H   0  0  0  0  0  0  0  0  0  0  0  0
   -8.5837  -37.8963  -16.3326 H   0  0  0  0  0  0  0  0  0  0  0  0
   -9.0331  -35.6420  -15.4533 H   0  0  0  0  0  0  0  0  0  0  0  0
  -10.1505  -33.7299  -15.4156 H   0  0  0  0  0  0  0  0  0  0  0  0
  -11.9174  -33.9444  -15.6578 H   0  0  0  0  0  0  0  0  0  0  0  0
  -10.0672  -32.7556  -17.7363 H   0  0  0  0  0  0  0  0  0  0  0  0
  -10.9160  -31.7930  -16.4795 H   0  0  0  0  0  0  0  0  0  0  0  0
  -12.1174  -31.7485  -18.4718 H   0  0  0  0  0  0  0  0  0  0  0  0
  -12.9765  -32.6245  -17.3745 H   0  0  0  0  0  0  0  0  0  0  0  0
  -11.4014  -33.8185  -19.5445 H   0  0  0  0  0  0  0  0  0  0  0  0
  -13.1505  -33.4272  -19.6644 H   0  0  0  0  0  0  0  0  0  0  0  0
  -13.1296  -35.6930  -19.1417 H   0  0  0  0  0  0  0  0  0  0  0  0
  -13.4187  -34.8927  -17.5597 H   0  0  0  0  0  0  0  0  0  0  0  0
  -11.8572  -37.4912  -19.0413 H   0  0  0  0  0  0  0  0  0  0  0  0
  -12.1747  -45.2580  -21.4386 H   0  0  0  0  0  0  0  0  0  0  0  0
   -9.5568  -48.4335  -20.9902 H   0  0  0  0  0  0  0  0  0  0  0  0
   -8.4706  -46.5098  -19.6935 H   0  0  0  0  0  0  0  0  0  0  0  0
  1  2  1  0  0  0  0
  1 28  1  0  0  0  0
  1 29  1  0  0  0  0
  1 30  1  0  0  0  0
  2  3  1  0  0  0  0
  3  4  2  0  0  0  0
  3  8  1  0  0  0  0
  4  5  1  0  0  0  0
  4 31  1  0  0  0  0
  5  6  2  0  0  0  0
  5 23  1  0  0  0  0
  6  7  1  0  0  0  0
  6 32  1  0  0  0  0
  7  8  2  0  0  0  0
  7 33  1  0  0  0  0
  8  9  1  0  0  0  0
  9 10  2  0  0  0  0
  9 11  1  0  0  0  0
 11 12  1  0  0  0  0
 11 34  1  0  0  0  0
 12 13  2  0  0  0  0
 12 22  1  0  0  0  0
 13 14  1  0  0  0  0
 13 35  1  0  0  0  0
 14 15  2  0  0  0  0
 14 36  1  0  0  0  0
 15 16  1  0  0  0  0
 15 21  1  0  0  0  0
 16 17  1  0  0  0  0
 16 37  1  0  0  0  0
 16 38  1  0  0  0  0
 17 18  1  0  0  0  0
 17 39  1  0  0  0  0
 17 40  1  0  0  0  0
 18 19  1  0  0  0  0
 18 41  1  0  0  0  0
 18 42  1  0  0  0  0
 19 20  1  0  0  0  0
 19 43  1  0  0  0  0
 19 44  1  0  0  0  0
 20 21  1  0  0  0  0
 20 45  1  0  0  0  0
 20 46  1  0  0  0  0
 21 22  2  0  0  0  0
 22 47  1  0  0  0  0
 23 24  1  0  0  0  0
 23 27  2  0  0  0  0
 24 25  2  0  0  0  0
 24 48  1  0  0  0  0
 25 26  1  0  0  0  0
 26 27  1  0  0  0  0
 26 49  1  0  0  0  0
 27 50  1  0  0  0  0
M  CHG  1  18   1
M  END
