4d52_ligand
 OpenBabel08222323353D

 24 24  0  0  1  0  0  0  0  0999 V2000
   18.7000  -24.5000   19.5100 C   0  0  1  0  0  0  0  0  0  0  0  0
   19.9000  -23.6000   19.7780 C   0  0  2  0  0  0  0  0  0  0  0  0
   19.6130  -22.1300   19.4710 C   0  0  1  0  0  0  0  0  0  0  0  0
   18.3280  -21.7060   20.2140 C   0  0  1  0  0  0  0  0  0  0  0  0
   17.1900  -22.6590   19.8280 C   0  0  2  0  0  0  0  0  0  0  0  0
   15.8970  -22.2260   20.4790 C   0  0  0  0  0  0  0  0  0  0  0  0
   19.0430  -25.7930   20.0080 O   0  0  0  0  0  0  0  0  0  0  0  0
   20.7800  -21.3420   19.8400 O   0  0  0  0  0  0  0  0  0  0  0  0
   18.5070  -21.7460   21.6300 O   0  0  0  0  0  0  0  0  0  0  0  0
   17.5600  -23.9880   20.1810 O   0  0  0  0  0  0  0  0  0  0  0  0
   14.8130  -23.0150   20.0120 O   0  0  0  0  0  0  0  0  0  0  0  0
   21.0310  -24.0740   19.0420 O   0  0  0  0  0  0  0  0  0  0  0  0
   18.4963  -24.5531   18.4303 H   0  0  0  0  0  0  0  0  0  0  0  0
   20.1387  -23.6712   20.8494 H   0  0  0  0  0  0  0  0  0  0  0  0
   19.4425  -22.0115   18.3908 H   0  0  0  0  0  0  0  0  0  0  0  0
   18.0643  -20.6806   19.9157 H   0  0  0  0  0  0  0  0  0  0  0  0
   17.0511  -22.6183   18.7376 H   0  0  0  0  0  0  0  0  0  0  0  0
   15.7062  -21.1702   20.2366 H   0  0  0  0  0  0  0  0  0  0  0  0
   15.9848  -22.3418   21.5693 H   0  0  0  0  0  0  0  0  0  0  0  0
   18.3143  -26.3871   19.8719 H   0  0  0  0  0  0  0  0  0  0  0  0
   20.9433  -21.4369   20.7711 H   0  0  0  0  0  0  0  0  0  0  0  0
   19.2110  -21.1574   21.8758 H   0  0  0  0  0  0  0  0  0  0  0  0
   14.9733  -23.9274   20.2222 H   0  0  0  0  0  0  0  0  0  0  0  0
   20.8610  -23.9869   18.1114 H   0  0  0  0  0  0  0  0  0  0  0  0
  1  2  1  0  0  0  0
  1  7  1  0  0  0  0
  1 10  1  0  0  0  0
  1 13  1  6  0  0  0
  2  3  1  0  0  0  0
  2 12  1  0  0  0  0
  2 14  1  1  0  0  0
  3  4  1  0  0  0  0
  3  8  1  0  0  0  0
  3 15  1  6  0  0  0
  4  5  1  0  0  0  0
  4  9  1  0  0  0  0
  4 16  1  6  0  0  0
  5  6  1  0  0  0  0
  5 10  1  0  0  0  0
  5 17  1  6  0  0  0
  6 11  1  0  0  0  0
  6 18  1  0  0  0  0
  6 19  1  0  0  0  0
  7 20  1  0  0  0  0
  8 21  1  0  0  0  0
  9 22  1  0  0  0  0
 11 23  1  0  0  0  0
 12 24  1  0  0  0  0
M  END
