4d62_ligand
 OpenBabel08222323353D

 39 39  0  0  1  0  0  0  0  0999 V2000
   47.4450   12.0130   31.7510 C   0  0  0  0  0  0  0  0  0  0  0  0
   46.8400   12.0380   33.1780 C   0  0  2  0  0  0  0  0  0  0  0  0
   46.3850   13.4660   33.5370 C   0  0  0  0  0  0  0  0  0  0  0  0
   45.1110   13.8400   32.7630 C   0  0  1  0  0  0  0  0  0  0  0  0
   44.0670   12.7520   33.0320 C   0  0  2  0  0  0  0  0  0  0  0  0
   44.5890   11.3970   32.4930 C   0  0  2  0  0  0  0  0  0  0  0  0
   43.6720   10.1830   32.6870 C   0  0  1  0  0  0  0  0  0  0  0  0
   44.3710    8.7850   32.7830 C   0  0  1  0  0  0  0  0  0  0  0  0
   44.2840    8.1430   34.1860 C   0  0  0  0  0  0  0  0  0  0  0  0
   41.6760   13.3160   33.2240 C   0  0  0  0  0  0  0  0  0  0  0  0
   40.4340   13.8940   32.5950 C   0  0  0  0  0  0  0  0  0  0  0  0
   42.7960   13.2220   32.4870 N   0  0  0  0  0  0  0  0  0  0  0  0
   47.7020   13.0870   31.1410 O   0  5  0  0  0  0  0  0  0  0  0  0
   47.6590   10.9070   31.1840 O   0  0  0  0  0  0  0  0  0  0  0  0
   47.6830   11.5070   34.2460 O   0  0  0  0  0  0  0  0  0  0  0  0
   44.5840   15.1550   33.0890 O   0  0  0  0  0  0  0  0  0  0  0  0
   45.7660   11.1030   33.2290 O   0  0  0  0  0  0  0  0  0  0  0  0
   42.9410   10.4760   33.8830 O   0  0  0  0  0  0  0  0  0  0  0  0
   43.8330    7.8220   31.8460 O   0  0  0  0  0  0  0  0  0  0  0  0
   45.4120    7.2900   34.4600 O   0  0  0  0  0  0  0  0  0  0  0  0
   41.6410   12.9420   34.3780 O   0  0  0  0  0  0  0  0  0  0  0  0
   47.1853   14.1755   33.2798 H   0  0  0  0  0  0  0  0  0  0  0  0
   46.1806   13.5194   34.6165 H   0  0  0  0  0  0  0  0  0  0  0  0
   45.3522   13.8390   31.6898 H   0  0  0  0  0  0  0  0  0  0  0  0
   43.9395   12.6407   34.1189 H   0  0  0  0  0  0  0  0  0  0  0  0
   44.8120   11.5062   31.4214 H   0  0  0  0  0  0  0  0  0  0  0  0
   42.9766   10.1369   31.8359 H   0  0  0  0  0  0  0  0  0  0  0  0
   45.4334    8.9412   32.5443 H   0  0  0  0  0  0  0  0  0  0  0  0
   43.3632    7.5443   34.2461 H   0  0  0  0  0  0  0  0  0  0  0  0
   44.2516    8.9423   34.9410 H   0  0  0  0  0  0  0  0  0  0  0  0
   39.6173   13.8972   33.3319 H   0  0  0  0  0  0  0  0  0  0  0  0
   40.1433   13.2824   31.7282 H   0  0  0  0  0  0  0  0  0  0  0  0
   40.6350   14.9242   32.2660 H   0  0  0  0  0  0  0  0  0  0  0  0
   42.7574   13.4854   31.5231 H   0  0  0  0  0  0  0  0  0  0  0  0
   47.9347   10.6155   34.0356 H   0  0  0  0  0  0  0  0  0  0  0  0
   43.8167   15.3284   32.5564 H   0  0  0  0  0  0  0  0  0  0  0  0
   42.5274   11.3272   33.7995 H   0  0  0  0  0  0  0  0  0  0  0  0
   43.8695    8.1820   30.9676 H   0  0  0  0  0  0  0  0  0  0  0  0
   45.3212    6.9160   35.3285 H   0  0  0  0  0  0  0  0  0  0  0  0
  1 13  1  0  0  0  0
  1 14  2  0  0  0  0
  2  1  1  6  0  0  0
  2 15  1  0  0  0  0
  3  2  1  0  0  0  0
  3 22  1  0  0  0  0
  3 23  1  0  0  0  0
  4  3  1  0  0  0  0
  4 16  1  0  0  0  0
  4 24  1  6  0  0  0
  5  4  1  0  0  0  0
  5  6  1  0  0  0  0
  5 25  1  1  0  0  0
  6  7  1  0  0  0  0
  6 17  1  0  0  0  0
  6 26  1  6  0  0  0
  7  8  1  0  0  0  0
  7 18  1  0  0  0  0
  7 27  1  6  0  0  0
  8  9  1  0  0  0  0
  8 19  1  0  0  0  0
  8 28  1  6  0  0  0
  9 20  1  0  0  0  0
  9 29  1  0  0  0  0
  9 30  1  0  0  0  0
 10 11  1  0  0  0  0
 10 12  1  0  0  0  0
 10 21  2  0  0  0  0
 11 31  1  0  0  0  0
 11 32  1  0  0  0  0
 11 33  1  0  0  0  0
 12  5  1  0  0  0  0
 12 34  1  0  0  0  0
 15 35  1  0  0  0  0
 16 36  1  0  0  0  0
 17  2  1  0  0  0  0
 18 37  1  0  0  0  0
 19 38  1  0  0  0  0
 20 39  1  0  0  0  0
M  CHG  1  13  -1
M  END
