4d8c_ligand
 OpenBabel08222323353D

 79 81  0  0  1  0  0  0  0  0999 V2000
   30.8100    9.4900   21.3900 F   0  0  0  0  0  0  0  0  0  0  0  0
   30.7100    8.3100   20.7360 C   0  0  0  0  0  0  0  0  0  0  0  0
   31.9360    8.0010   20.2650 F   0  0  0  0  0  0  0  0  0  0  0  0
   30.3210    7.3190   21.5810 F   0  0  0  0  0  0  0  0  0  0  0  0
   29.7320    8.4610   19.5350 C   0  0  2  0  0  0  0  0  0  0  0  0
   30.2460    9.5590   18.7400 O   0  0  0  0  0  0  0  0  0  0  0  0
   30.6030    9.3650   17.4090 C   0  0  0  0  0  0  0  0  0  0  0  0
   30.2620   10.3590   16.4560 C   0  0  0  0  0  0  0  0  0  0  0  0
   30.6220   10.1750   15.0960 C   0  0  0  0  0  0  0  0  0  0  0  0
   31.2870    8.9990   14.6820 C   0  0  0  0  0  0  0  0  0  0  0  0
   31.6170    8.0040   15.6380 C   0  0  0  0  0  0  0  0  0  0  0  0
   31.2700    8.1920   16.9910 C   0  0  0  0  0  0  0  0  0  0  0  0
   32.3220    6.7020   15.2260 C   0  0  0  0  0  0  0  0  0  0  0  0
   31.3450    5.6920   14.5220 C   0  0  1  0  0  0  0  0  0  0  0  0
   31.9840    4.3080   14.1880 C   0  0  1  0  0  0  0  0  0  0  0  0
   31.0420    3.3910   13.3440 C   0  0  2  0  0  0  0  0  0  0  0  0
   29.6270    3.1280   13.9520 C   0  0  0  0  0  0  0  0  0  0  0  0
   28.7850    4.6730   14.3140 S   0  0  0  0  0  0  0  0  0  0  0  0
   30.0260    5.4710   15.3380 C   0  0  0  0  0  0  0  0  0  0  0  0
   27.6140    4.3840   15.1100 O   0  0  0  0  0  0  0  0  0  0  0  0
   28.6100    5.4540   13.0990 O   0  0  0  0  0  0  0  0  0  0  0  0
   31.7050    2.1270   12.9120 N   0  3  0  0  0  0  0  0  0  0  0  0
   31.1160    1.2670   11.8480 C   0  0  0  0  0  0  0  0  0  0  0  0
   30.9020    2.0840   10.5580 C   0  0  0  0  0  0  0  0  0  0  0  0
   32.0370    2.5480    9.8600 C   0  0  0  0  0  0  0  0  0  0  0  0
   31.9510    3.3110    8.6580 C   0  0  0  0  0  0  0  0  0  0  0  0
   30.6310    3.5820    8.1880 C   0  0  0  0  0  0  0  0  0  0  0  0
   29.4770    3.1280    8.8690 C   0  0  0  0  0  0  0  0  0  0  0  0
   29.6040    2.3730   10.0600 C   0  0  0  0  0  0  0  0  0  0  0  0
   33.2470    3.8000    7.9250 C   0  0  0  0  0  0  0  0  0  0  0  0
   34.2140    2.5960    7.7180 C   0  0  0  0  0  0  0  0  0  0  0  0
   33.0210    4.4330    6.5070 C   0  0  0  0  0  0  0  0  0  0  0  0
   33.9910    4.8900    8.7680 C   0  0  0  0  0  0  0  0  0  0  0  0
   33.1790    4.4790   13.4060 O   0  0  0  0  0  0  0  0  0  0  0  0
   30.3120   11.0990   14.1910 F   0  0  0  0  0  0  0  0  0  0  0  0
   29.6240   11.4870   16.8540 N   0  0  0  0  0  0  0  0  0  0  0  0
   28.2780    8.7570   19.9990 C   0  0  0  0  0  0  0  0  0  0  0  0
   27.4550    8.8720   18.8220 O   0  0  0  0  0  0  0  0  0  0  0  0
   26.0210    8.8840   19.0730 C   0  0  0  0  0  0  0  0  0  0  0  0
   25.5520   10.3750   19.0670 C   0  0  0  0  0  0  0  0  0  0  0  0
   29.7312    7.5355   18.9405 H   0  0  0  0  0  0  0  0  0  0  0  0
   31.5439    8.8577   13.6384 H   0  0  0  0  0  0  0  0  0  0  0  0
   31.5177    7.4280   17.7190 H   0  0  0  0  0  0  0  0  0  0  0  0
   32.7367    6.2241   16.1258 H   0  0  0  0  0  0  0  0  0  0  0  0
   33.1389    6.9466   14.5312 H   0  0  0  0  0  0  0  0  0  0  0  0
   31.0626    6.1529   13.5640 H   0  0  0  0  0  0  0  0  0  0  0  0
   32.2291    3.8026   15.1338 H   0  0  0  0  0  0  0  0  0  0  0  0
   30.8534    3.9564   12.4195 H   0  0  0  0  0  0  0  0  0  0  0  0
   29.7366    2.5515   14.8824 H   0  0  0  0  0  0  0  0  0  0  0  0
   29.0275    2.5517   13.2320 H   0  0  0  0  0  0  0  0  0  0  0  0
   29.6434    6.4441   15.6795 H   0  0  0  0  0  0  0  0  0  0  0  0
   30.2408    4.8351   16.2094 H   0  0  0  0  0  0  0  0  0  0  0  0
   31.7818    1.5498   13.7348 H   0  0  0  0  0  0  0  0  0  0  0  0
   32.6266    2.3829   12.5938 H   0  0  0  0  0  0  0  0  0  0  0  0
   30.1485    0.8737   12.1933 H   0  0  0  0  0  0  0  0  0  0  0  0
   31.7984    0.4300   11.6386 H   0  0  0  0  0  0  0  0  0  0  0  0
   33.0189    2.3140   10.2552 H   0  0  0  0  0  0  0  0  0  0  0  0
   30.5082    4.1561    7.2768 H   0  0  0  0  0  0  0  0  0  0  0  0
   28.4928    3.3588    8.4778 H   0  0  0  0  0  0  0  0  0  0  0  0
   28.7230    2.0206   10.5842 H   0  0  0  0  0  0  0  0  0  0  0  0
   35.1233    2.9403    7.2035 H   0  0  0  0  0  0  0  0  0  0  0  0
   33.7168    1.8269    7.1086 H   0  0  0  0  0  0  0  0  0  0  0  0
   34.4847    2.1708    8.6957 H   0  0  0  0  0  0  0  0  0  0  0  0
   32.3412    5.2935    6.5937 H   0  0  0  0  0  0  0  0  0  0  0  0
   32.5780    3.6819    5.8365 H   0  0  0  0  0  0  0  0  0  0  0  0
   33.9853    4.7674    6.0968 H   0  0  0  0  0  0  0  0  0  0  0  0
   34.1801    4.5044    9.7807 H   0  0  0  0  0  0  0  0  0  0  0  0
   33.3676    5.7941    8.8304 H   0  0  0  0  0  0  0  0  0  0  0  0
   34.9480    5.1370    8.2852 H   0  0  0  0  0  0  0  0  0  0  0  0
   33.7888    5.0332   13.8787 H   0  0  0  0  0  0  0  0  0  0  0  0
   29.3668   11.6113   17.8436 H   0  0  0  0  0  0  0  0  0  0  0  0
   29.3965   12.2197   16.1668 H   0  0  0  0  0  0  0  0  0  0  0  0
   28.2510    9.6981   20.5679 H   0  0  0  0  0  0  0  0  0  0  0  0
   27.9126    7.9351   20.6322 H   0  0  0  0  0  0  0  0  0  0  0  0
   25.8076    8.4278   20.0509 H   0  0  0  0  0  0  0  0  0  0  0  0
   25.4976    8.3231   18.2847 H   0  0  0  0  0  0  0  0  0  0  0  0
   24.4690   10.4194   19.2545 H   0  0  0  0  0  0  0  0  0  0  0  0
   25.7734   10.8251   18.0880 H   0  0  0  0  0  0  0  0  0  0  0  0
   26.0834   10.9297   19.8543 H   0  0  0  0  0  0  0  0  0  0  0  0
  1  2  1  0  0  0  0
  2  3  1  0  0  0  0
  2  4  1  0  0  0  0
  2  5  1  0  0  0  0
  5  6  1  0  0  0  0
  5 37  1  0  0  0  0
  5 41  1  6  0  0  0
  6  7  1  0  0  0  0
  7  8  2  0  0  0  0
  7 12  1  0  0  0  0
  8  9  1  0  0  0  0
  8 36  1  0  0  0  0
  9 10  2  0  0  0  0
  9 35  1  0  0  0  0
 10 11  1  0  0  0  0
 10 42  1  0  0  0  0
 11 12  2  0  0  0  0
 11 13  1  0  0  0  0
 12 43  1  0  0  0  0
 13 14  1  0  0  0  0
 13 44  1  0  0  0  0
 13 45  1  0  0  0  0
 14 15  1  0  0  0  0
 14 19  1  0  0  0  0
 14 46  1  6  0  0  0
 15 16  1  0  0  0  0
 15 34  1  0  0  0  0
 15 47  1  1  0  0  0
 16 17  1  0  0  0  0
 16 22  1  0  0  0  0
 16 48  1  6  0  0  0
 17 18  1  0  0  0  0
 17 49  1  0  0  0  0
 17 50  1  0  0  0  0
 18 19  1  0  0  0  0
 18 20  2  0  0  0  0
 18 21  2  0  0  0  0
 19 51  1  0  0  0  0
 19 52  1  0  0  0  0
 22 23  1  0  0  0  0
 22 53  1  0  0  0  0
 22 54  1  0  0  0  0
 23 24  1  0  0  0  0
 23 55  1  0  0  0  0
 23 56  1  0  0  0  0
 24 25  2  0  0  0  0
 24 29  1  0  0  0  0
 25 26  1  0  0  0  0
 25 57  1  0  0  0  0
 26 27  2  0  0  0  0
 26 30  1  0  0  0  0
 27 28  1  0  0  0  0
 27 58  1  0  0  0  0
 28 29  2  0  0  0  0
 28 59  1  0  0  0  0
 29 60  1  0  0  0  0
 30 31  1  0  0  0  0
 30 32  1  0  0  0  0
 30 33  1  0  0  0  0
 31 61  1  0  0  0  0
 31 62  1  0  0  0  0
 31 63  1  0  0  0  0
 32 64  1  0  0  0  0
 32 65  1  0  0  0  0
 32 66  1  0  0  0  0
 33 67  1  0  0  0  0
 33 68  1  0  0  0  0
 33 69  1  0  0  0  0
 34 70  1  0  0  0  0
 36 71  1  0  0  0  0
 36 72  1  0  0  0  0
 37 38  1  0  0  0  0
 37 73  1  0  0  0  0
 37 74  1  0  0  0  0
 38 39  1  0  0  0  0
 39 40  1  0  0  0  0
 39 75  1  0  0  0  0
 39 76  1  0  0  0  0
 40 77  1  0  0  0  0
 40 78  1  0  0  0  0
 40 79  1  0  0  0  0
M  CHG  1  22   1
M  END
