4d8i_ligand
 OpenBabel08222323353D

 75 74  0  0  1  0  0  0  0  0999 V2000
    5.9090  -13.2860   -7.9480 C   0  0  0  0  0  0  0  0  0  0  0  0
    5.4340  -12.9720   -6.8490 O   0  0  0  0  0  0  0  0  0  0  0  0
    5.0900  -13.1540   -9.2080 C   0  0  0  0  0  0  0  0  0  0  0  0
    6.9770  -14.0550   -8.0490 N   0  0  0  0  0  0  0  0  0  0  0  0
    7.9640  -14.1980   -6.9800 C   0  0  2  0  0  0  0  0  0  0  0  0
    9.3170  -13.8050   -7.5130 C   0  0  0  0  0  0  0  0  0  0  0  0
   10.2680  -14.6240   -7.5470 O   0  0  0  0  0  0  0  0  0  0  0  0
    8.0080  -15.6460   -6.4150 C   0  0  0  0  0  0  0  0  0  0  0  0
    9.4260  -12.5380   -7.9120 N   0  0  0  0  0  0  0  0  0  0  0  0
   10.5740  -12.1090   -8.7090 C   0  0  2  0  0  0  0  0  0  0  0  0
   11.5170  -11.1910   -7.9810 C   0  0  0  0  0  0  0  0  0  0  0  0
   12.4850  -10.6810   -8.5720 O   0  0  0  0  0  0  0  0  0  0  0  0
   10.1350  -11.4820  -10.0370 C   0  0  0  0  0  0  0  0  0  0  0  0
    9.2320  -12.3710  -10.8650 C   0  0  0  0  0  0  0  0  0  0  0  0
    9.9020  -13.6710  -11.2950 C   0  0  0  0  0  0  0  0  0  0  0  0
   11.1620  -13.7340  -11.3410 O   0  5  0  0  0  0  0  0  0  0  0  0
    9.1590  -14.6460  -11.5750 O   0  0  0  0  0  0  0  0  0  0  0  0
   11.2880  -10.9940   -6.6820 N   0  0  0  0  0  0  0  0  0  0  0  0
   12.2070  -10.1740   -5.8840 C   0  0  2  0  0  0  0  0  0  0  0  0
   13.2230  -11.1140   -5.3090 C   0  0  0  0  0  0  0  0  0  0  0  0
   12.8740  -11.9550   -4.4770 O   0  0  0  0  0  0  0  0  0  0  0  0
   11.4430   -9.3830   -4.7740 C   0  0  2  0  0  0  0  0  0  0  0  0
   10.2260   -8.6190   -5.3320 C   0  0  0  0  0  0  0  0  0  0  0  0
   12.3950   -8.4370   -4.0250 C   0  0  0  0  0  0  0  0  0  0  0  0
   10.5940   -7.5920   -6.4790 C   0  0  0  0  0  0  0  0  0  0  0  0
   16.6460  -11.4390   -4.5950 C   0  0  0  0  0  0  0  0  0  0  0  0
   14.4720  -10.9980   -5.7300 N   0  0  0  0  0  0  0  0  0  0  0  0
   17.4880  -12.3500   -4.2270 O   0  0  0  0  0  0  0  0  0  0  0  0
   15.4650  -11.9640   -5.3370 C   0  0  1  0  0  0  0  0  0  0  0  0
   16.0490  -12.6260   -6.6080 C   0  0  0  0  0  0  0  0  0  0  0  0
   15.4990  -14.1130   -8.6600 C   0  0  0  0  0  0  0  0  0  0  0  0
   14.4370  -14.7830   -9.4830 C   0  0  0  0  0  0  0  0  0  0  0  0
   14.9970  -13.2870   -7.4740 C   0  0  0  0  0  0  0  0  0  0  0  0
   14.8720  -15.8550  -10.3350 N   0  3  0  0  0  0  0  0  0  0  0  0
    5.6888  -13.4820  -10.0705 H   0  0  0  0  0  0  0  0  0  0  0  0
    4.7946  -12.1033   -9.3450 H   0  0  0  0  0  0  0  0  0  0  0  0
    4.1895  -13.7805   -9.1273 H   0  0  0  0  0  0  0  0  0  0  0  0
    7.1179  -14.5645   -8.8979 H   0  0  0  0  0  0  0  0  0  0  0  0
    7.6925  -13.5167   -6.1602 H   0  0  0  0  0  0  0  0  0  0  0  0
    8.7620  -15.7052   -5.6163 H   0  0  0  0  0  0  0  0  0  0  0  0
    8.2721  -16.3463   -7.2211 H   0  0  0  0  0  0  0  0  0  0  0  0
    7.0211  -15.9109   -6.0078 H   0  0  0  0  0  0  0  0  0  0  0  0
    8.7180  -11.8766   -7.6646 H   0  0  0  0  0  0  0  0  0  0  0  0
   11.1429  -13.0187   -8.9515 H   0  0  0  0  0  0  0  0  0  0  0  0
   11.0349  -11.2559  -10.6278 H   0  0  0  0  0  0  0  0  0  0  0  0
    9.5960  -10.5485   -9.8181 H   0  0  0  0  0  0  0  0  0  0  0  0
    8.9287  -11.8188  -11.7667 H   0  0  0  0  0  0  0  0  0  0  0  0
    8.3410  -12.6172  -10.2687 H   0  0  0  0  0  0  0  0  0  0  0  0
   10.4864  -11.4070   -6.2497 H   0  0  0  0  0  0  0  0  0  0  0  0
   12.7129   -9.4491   -6.5386 H   0  0  0  0  0  0  0  0  0  0  0  0
   11.0641  -10.1176   -4.0482 H   0  0  0  0  0  0  0  0  0  0  0  0
    9.7552   -8.0646   -4.5068 H   0  0  0  0  0  0  0  0  0  0  0  0
    9.5116   -9.3509   -5.7367 H   0  0  0  0  0  0  0  0  0  0  0  0
   13.2517   -9.0090   -3.6391 H   0  0  0  0  0  0  0  0  0  0  0  0
   11.8603   -7.9671   -3.1864 H   0  0  0  0  0  0  0  0  0  0  0  0
   12.7545   -7.6580   -4.7134 H   0  0  0  0  0  0  0  0  0  0  0  0
    9.6804   -7.0871   -6.8261 H   0  0  0  0  0  0  0  0  0  0  0  0
   11.0568   -8.1307   -7.3190 H   0  0  0  0  0  0  0  0  0  0  0  0
   11.3004   -6.8444   -6.0891 H   0  0  0  0  0  0  0  0  0  0  0  0
   17.1725  -10.7248   -5.2451 H   0  0  0  0  0  0  0  0  0  0  0  0
   16.2851  -10.9189   -3.6954 H   0  0  0  0  0  0  0  0  0  0  0  0
   14.7277  -10.2355   -6.3242 H   0  0  0  0  0  0  0  0  0  0  0  0
   17.8183  -12.8027   -4.9940 H   0  0  0  0  0  0  0  0  0  0  0  0
   14.9684  -12.7206   -4.7118 H   0  0  0  0  0  0  0  0  0  0  0  0
   16.7788  -13.3895   -6.3006 H   0  0  0  0  0  0  0  0  0  0  0  0
   16.5562  -11.8526   -7.2034 H   0  0  0  0  0  0  0  0  0  0  0  0
   16.0671  -13.4430   -9.3220 H   0  0  0  0  0  0  0  0  0  0  0  0
   16.1668  -14.8947   -8.2688 H   0  0  0  0  0  0  0  0  0  0  0  0
   13.9734  -14.0157  -10.1204 H   0  0  0  0  0  0  0  0  0  0  0  0
   13.6840  -15.1892   -8.7916 H   0  0  0  0  0  0  0  0  0  0  0  0
   14.3474  -12.4937   -7.8723 H   0  0  0  0  0  0  0  0  0  0  0  0
   14.4070  -13.9550   -6.8293 H   0  0  0  0  0  0  0  0  0  0  0  0
   14.0810  -16.2277  -10.8364 H   0  0  0  0  0  0  0  0  0  0  0  0
   15.2875  -16.5824   -9.7743 H   0  0  0  0  0  0  0  0  0  0  0  0
   15.5526  -15.5070  -10.9920 H   0  0  0  0  0  0  0  0  0  0  0  0
  1  2  2  0  0  0  0
  1  3  1  0  0  0  0
  3 35  1  0  0  0  0
  3 36  1  0  0  0  0
  3 37  1  0  0  0  0
  4  1  1  0  0  0  0
  4 38  1  0  0  0  0
  5  4  1  0  0  0  0
  5  8  1  0  0  0  0
  5 39  1  1  0  0  0
  6  5  1  0  0  0  0
  6  7  2  0  0  0  0
  8 40  1  0  0  0  0
  8 41  1  0  0  0  0
  8 42  1  0  0  0  0
  9  6  1  0  0  0  0
  9 43  1  0  0  0  0
 10  9  1  0  0  0  0
 10 13  1  0  0  0  0
 10 44  1  6  0  0  0
 11 10  1  0  0  0  0
 11 12  2  0  0  0  0
 13 14  1  0  0  0  0
 13 45  1  0  0  0  0
 13 46  1  0  0  0  0
 14 15  1  0  0  0  0
 14 47  1  0  0  0  0
 14 48  1  0  0  0  0
 15 16  1  0  0  0  0
 15 17  2  0  0  0  0
 18 11  1  0  0  0  0
 18 49  1  0  0  0  0
 19 18  1  0  0  0  0
 19 22  1  0  0  0  0
 19 50  1  6  0  0  0
 20 19  1  0  0  0  0
 20 21  2  0  0  0  0
 22 23  1  0  0  0  0
 22 24  1  0  0  0  0
 22 51  1  1  0  0  0
 23 25  1  0  0  0  0
 23 52  1  0  0  0  0
 23 53  1  0  0  0  0
 24 54  1  0  0  0  0
 24 55  1  0  0  0  0
 24 56  1  0  0  0  0
 25 57  1  0  0  0  0
 25 58  1  0  0  0  0
 25 59  1  0  0  0  0
 26 28  1  0  0  0  0
 26 60  1  0  0  0  0
 26 61  1  0  0  0  0
 27 20  1  0  0  0  0
 27 62  1  0  0  0  0
 28 63  1  0  0  0  0
 29 26  1  0  0  0  0
 29 27  1  0  0  0  0
 29 64  1  1  0  0  0
 30 29  1  0  0  0  0
 30 65  1  0  0  0  0
 30 66  1  0  0  0  0
 31 32  1  0  0  0  0
 31 33  1  0  0  0  0
 31 67  1  0  0  0  0
 31 68  1  0  0  0  0
 32 34  1  0  0  0  0
 32 69  1  0  0  0  0
 32 70  1  0  0  0  0
 33 30  1  0  0  0  0
 33 71  1  0  0  0  0
 33 72  1  0  0  0  0
 34 73  1  0  0  0  0
 34 74  1  0  0  0  0
 34 75  1  0  0  0  0
M  CHG  2  16  -1  34   1
M  END
