4d8s_ligand
 OpenBabel08222323353D

 40 40  0  0  1  0  0  0  0  0999 V2000
  -26.6740  -22.0990  -11.4440 C   0  0  0  0  0  0  0  0  0  0  0  0
  -26.1270  -23.1890  -10.5210 C   0  0  0  0  0  0  0  0  0  0  0  0
  -24.0740  -19.8010  -11.9140 C   0  0  2  0  0  0  0  0  0  0  0  0
  -23.7740  -18.3310  -11.6670 C   0  0  1  0  0  0  0  0  0  0  0  0
  -22.2770  -20.4560  -10.5560 C   0  0  0  0  0  0  0  0  0  0  0  0
  -21.5810  -21.6300   -9.8620 C   0  0  0  0  0  0  0  0  0  0  0  0
  -21.5920  -19.2800  -10.8400 C   0  0  0  0  0  0  0  0  0  0  0  0
  -22.2610  -18.1200  -11.5780 C   0  0  2  0  0  0  0  0  0  0  0  0
  -25.2450  -16.6420  -12.7420 C   0  0  0  0  0  0  0  0  0  0  0  0
  -25.5530  -15.9500  -14.0680 C   0  0  0  0  0  0  0  0  0  0  0  0
  -24.2660  -17.5440  -12.8040 N   0  0  0  0  0  0  0  0  0  0  0  0
  -25.5600  -21.4390  -12.2420 C   0  0  0  0  0  0  0  0  0  0  0  0
  -26.1520  -23.0370  -14.0550 C   0  0  0  0  0  0  0  0  0  0  0  0
  -25.8430  -21.5720  -13.7400 C   0  0  0  0  0  0  0  0  0  0  0  0
  -25.4680  -20.0680  -11.8920 O   0  0  0  0  0  0  0  0  0  0  0  0
  -23.5940  -20.5990  -10.8520 O   0  0  0  0  0  0  0  0  0  0  0  0
  -20.4540  -21.4680   -9.3560 O   0  5  0  0  0  0  0  0  0  0  0  0
  -22.1930  -22.7150   -9.8380 O   0  0  0  0  0  0  0  0  0  0  0  0
  -21.9460  -16.8870  -10.9260 O   0  0  0  0  0  0  0  0  0  0  0  0
  -25.8760  -16.3660  -11.7290 O   0  0  0  0  0  0  0  0  0  0  0  0
  -27.1797  -21.3349  -10.8354 H   0  0  0  0  0  0  0  0  0  0  0  0
  -27.3958  -22.5492  -12.1414 H   0  0  0  0  0  0  0  0  0  0  0  0
  -26.9563  -23.6447   -9.9601 H   0  0  0  0  0  0  0  0  0  0  0  0
  -25.4076  -22.7460   -9.8165 H   0  0  0  0  0  0  0  0  0  0  0  0
  -25.6237  -23.9603  -11.1225 H   0  0  0  0  0  0  0  0  0  0  0  0
  -23.6298  -20.1067  -12.8728 H   0  0  0  0  0  0  0  0  0  0  0  0
  -24.2585  -18.0014  -10.7361 H   0  0  0  0  0  0  0  0  0  0  0  0
  -20.5529  -19.1826  -10.5290 H   0  0  0  0  0  0  0  0  0  0  0  0
  -21.8603  -18.0821  -12.6017 H   0  0  0  0  0  0  0  0  0  0  0  0
  -26.3689  -15.2266  -13.9232 H   0  0  0  0  0  0  0  0  0  0  0  0
  -25.8569  -16.7013  -14.8118 H   0  0  0  0  0  0  0  0  0  0  0  0
  -24.6552  -15.4236  -14.4242 H   0  0  0  0  0  0  0  0  0  0  0  0
  -23.8337  -17.6962  -13.6928 H   0  0  0  0  0  0  0  0  0  0  0  0
  -24.6066  -21.9359  -12.0095 H   0  0  0  0  0  0  0  0  0  0  0  0
  -26.3574  -23.1454  -15.1302 H   0  0  0  0  0  0  0  0  0  0  0  0
  -27.0327  -23.3580  -13.4793 H   0  0  0  0  0  0  0  0  0  0  0  0
  -25.2881  -23.6609  -13.7820 H   0  0  0  0  0  0  0  0  0  0  0  0
  -24.9615  -21.2486  -14.3130 H   0  0  0  0  0  0  0  0  0  0  0  0
  -26.7060  -20.9458  -14.0103 H   0  0  0  0  0  0  0  0  0  0  0  0
  -22.2611  -16.9142  -10.0302 H   0  0  0  0  0  0  0  0  0  0  0  0
  1  2  1  0  0  0  0
  1 21  1  0  0  0  0
  1 22  1  0  0  0  0
  2 23  1  0  0  0  0
  2 24  1  0  0  0  0
  2 25  1  0  0  0  0
  3  4  1  0  0  0  0
  3 16  1  0  0  0  0
  3 26  1  6  0  0  0
  4  8  1  0  0  0  0
  4 11  1  0  0  0  0
  4 27  1  1  0  0  0
  5  6  1  0  0  0  0
  5  7  2  0  0  0  0
  6 17  1  0  0  0  0
  6 18  2  0  0  0  0
  7 28  1  0  0  0  0
  8  7  1  0  0  0  0
  8 19  1  0  0  0  0
  8 29  1  6  0  0  0
  9 10  1  0  0  0  0
  9 20  2  0  0  0  0
 10 30  1  0  0  0  0
 10 31  1  0  0  0  0
 10 32  1  0  0  0  0
 11  9  1  0  0  0  0
 11 33  1  0  0  0  0
 12  1  1  0  0  0  0
 12 14  1  0  0  0  0
 12 15  1  0  0  0  0
 12 34  1  0  0  0  0
 13 35  1  0  0  0  0
 13 36  1  0  0  0  0
 13 37  1  0  0  0  0
 14 13  1  0  0  0  0
 14 38  1  0  0  0  0
 14 39  1  0  0  0  0
 15  3  1  0  0  0  0
 16  5  1  0  0  0  0
 19 40  1  0  0  0  0
M  CHG  1  17  -1
M  END
