4dfn_ligand
 OpenBabel08222323353D

 61 66  0  0  1  0  0  0  0  0999 V2000
    0.7110   -1.1710   14.4680 C   0  0  0  0  0  0  0  0  0  0  0  0
   -0.0170   -0.2230   13.7530 C   0  0  0  0  0  0  0  0  0  0  0  0
    0.0500   -2.3280   14.8850 C   0  0  0  0  0  0  0  0  0  0  0  0
   -1.3630   -0.4290   13.4370 C   0  0  0  0  0  0  0  0  0  0  0  0
   -1.2850   -2.5360   14.5780 C   0  0  0  0  0  0  0  0  0  0  0  0
   -1.9960   -1.5910   13.8590 C   0  0  0  0  0  0  0  0  0  0  0  0
    4.8310   -0.2720   15.3800 C   0  0  0  0  0  0  0  0  0  0  0  0
    4.1200    0.5070   14.4820 C   0  0  0  0  0  0  0  0  0  0  0  0
    2.7940    0.1920   14.2170 N   0  0  0  0  0  0  0  0  0  0  0  0
    2.8950   -1.6720   15.6890 C   0  0  0  0  0  0  0  0  0  0  0  0
    2.1560   -0.8990   14.7960 C   0  0  0  0  0  0  0  0  0  0  0  0
    6.1690    0.0200   15.6840 N   0  0  0  0  0  0  0  0  0  0  0  0
   -2.1220    0.5950   12.6830 C   0  0  0  0  0  0  0  0  0  0  0  0
   -1.6260    1.6600   11.9790 C   0  0  0  0  0  0  0  0  0  0  0  0
   -3.4860    0.7130   12.5600 C   0  0  0  0  0  0  0  0  0  0  0  0
    4.1350    3.6590   12.1810 C   0  0  2  0  0  0  0  0  0  0  0  0
    3.6870    4.8710   13.0200 C   0  0  2  0  0  0  0  0  0  0  0  0
    3.3290    3.6560   10.8480 C   0  0  2  0  0  0  0  0  0  0  0  0
    1.3770    4.7410   12.0270 C   0  0  1  0  0  0  0  0  0  0  0  0
    3.1420    6.1690   10.9290 C   0  0  2  0  0  0  0  0  0  0  0  0
    1.6360    6.0570   11.2630 C   0  0  0  0  0  0  0  0  0  0  0  0
    5.8460    2.0550   14.0550 O   0  0  0  0  0  0  0  0  0  0  0  0
    4.7170    1.7030   13.8300 C   0  0  0  0  0  0  0  0  0  0  0  0
    3.9080    2.4270   12.9790 N   0  0  0  0  0  0  0  0  0  0  0  0
    3.6130    4.9690   10.0870 C   0  0  0  0  0  0  0  0  0  0  0  0
   -0.0010    4.5960   12.3520 O   0  0  0  0  0  0  0  0  0  0  0  0
    1.8170    3.5830   11.1060 C   0  0  0  0  0  0  0  0  0  0  0  0
    2.1860    4.7650   13.3350 C   0  0  0  0  0  0  0  0  0  0  0  0
    3.9230    6.1780   12.2420 C   0  0  0  0  0  0  0  0  0  0  0  0
    4.2150   -1.3560   15.9790 N   0  0  0  0  0  0  0  0  0  0  0  0
   -3.7580    1.7910   11.7990 N   0  0  0  0  0  0  0  0  0  0  0  0
   -2.6720    2.3350   11.4750 N   0  0  0  0  0  0  0  0  0  0  0  0
   -2.5610    3.5420   10.6510 C   0  0  0  0  0  0  0  0  0  0  0  0
    0.4695    0.6922   13.4355 H   0  0  0  0  0  0  0  0  0  0  0  0
    0.5891   -3.0743   15.4572 H   0  0  0  0  0  0  0  0  0  0  0  0
   -1.7763   -3.4458   14.9034 H   0  0  0  0  0  0  0  0  0  0  0  0
   -3.0417   -1.7569   13.6264 H   0  0  0  0  0  0  0  0  0  0  0  0
    2.4334   -2.5307   16.1631 H   0  0  0  0  0  0  0  0  0  0  0  0
    6.6851   -0.5682   16.3538 H   0  0  0  0  0  0  0  0  0  0  0  0
    6.6353    0.8226   15.2375 H   0  0  0  0  0  0  0  0  0  0  0  0
   -0.5746    1.9134   11.8512 H   0  0  0  0  0  0  0  0  0  0  0  0
   -4.2238    0.0462   13.0038 H   0  0  0  0  0  0  0  0  0  0  0  0
    5.2072    3.7430   11.9501 H   0  0  0  0  0  0  0  0  0  0  0  0
    4.2606    4.8929   13.9583 H   0  0  0  0  0  0  0  0  0  0  0  0
    3.6391    2.7940   10.2391 H   0  0  0  0  0  0  0  0  0  0  0  0
    3.3271    7.1007   10.3744 H   0  0  0  0  0  0  0  0  0  0  0  0
    1.3344    6.9101   11.8886 H   0  0  0  0  0  0  0  0  0  0  0  0
    1.0521    6.0613   10.3308 H   0  0  0  0  0  0  0  0  0  0  0  0
    2.9880    2.0479   12.8799 H   0  0  0  0  0  0  0  0  0  0  0  0
    3.0731    4.9604    9.1287 H   0  0  0  0  0  0  0  0  0  0  0  0
    4.6932    5.0561    9.8985 H   0  0  0  0  0  0  0  0  0  0  0  0
   -0.2744    5.3231   12.8990 H   0  0  0  0  0  0  0  0  0  0  0  0
    1.5765    2.6239   11.5880 H   0  0  0  0  0  0  0  0  0  0  0  0
    1.2810    3.6567   10.1483 H   0  0  0  0  0  0  0  0  0  0  0  0
    1.8779    5.6315   13.9385 H   0  0  0  0  0  0  0  0  0  0  0  0
    1.9960    3.8395   13.8983 H   0  0  0  0  0  0  0  0  0  0  0  0
    4.9963    6.2804   12.0238 H   0  0  0  0  0  0  0  0  0  0  0  0
    3.5906    7.0289   12.8548 H   0  0  0  0  0  0  0  0  0  0  0  0
   -3.5668    3.8899   10.3730 H   0  0  0  0  0  0  0  0  0  0  0  0
   -1.9876    3.3130    9.7406 H   0  0  0  0  0  0  0  0  0  0  0  0
   -2.0453    4.3289   11.2209 H   0  0  0  0  0  0  0  0  0  0  0  0
  1  2  2  0  0  0  0
  1  3  1  0  0  0  0
  2  4  1  0  0  0  0
  2 34  1  0  0  0  0
  3  5  2  0  0  0  0
  3 35  1  0  0  0  0
  4  6  2  0  0  0  0
  4 13  1  0  0  0  0
  5  6  1  0  0  0  0
  5 36  1  0  0  0  0
  6 37  1  0  0  0  0
  7 12  1  0  0  0  0
  7 30  1  0  0  0  0
  8  7  2  0  0  0  0
  8  9  1  0  0  0  0
  9 11  2  0  0  0  0
 10 38  1  0  0  0  0
 11  1  1  0  0  0  0
 11 10  1  0  0  0  0
 12 39  1  0  0  0  0
 12 40  1  0  0  0  0
 13 14  2  0  0  0  0
 13 15  1  0  0  0  0
 14 32  1  0  0  0  0
 14 41  1  0  0  0  0
 15 31  2  0  0  0  0
 15 42  1  0  0  0  0
 16 17  1  0  0  0  0
 16 18  1  0  0  0  0
 16 43  1  6  0  0  0
 17 28  1  0  0  0  0
 17 29  1  0  0  0  0
 17 44  1  1  0  0  0
 18 25  1  0  0  0  0
 18 27  1  0  0  0  0
 18 45  1  6  0  0  0
 19 21  1  0  0  0  0
 19 26  1  1  0  0  0
 20 21  1  0  0  0  0
 20 46  1  6  0  0  0
 21 47  1  0  0  0  0
 21 48  1  0  0  0  0
 23  8  1  0  0  0  0
 23 22  2  0  0  0  0
 23 24  1  0  0  0  0
 24 16  1  0  0  0  0
 24 49  1  0  0  0  0
 25 20  1  0  0  0  0
 25 50  1  0  0  0  0
 25 51  1  0  0  0  0
 26 52  1  0  0  0  0
 27 19  1  0  0  0  0
 27 53  1  0  0  0  0
 27 54  1  0  0  0  0
 28 19  1  0  0  0  0
 28 55  1  0  0  0  0
 28 56  1  0  0  0  0
 29 20  1  0  0  0  0
 29 57  1  0  0  0  0
 29 58  1  0  0  0  0
 30 10  2  0  0  0  0
 31 32  1  0  0  0  0
 32 33  1  0  0  0  0
 33 59  1  0  0  0  0
 33 60  1  0  0  0  0
 33 61  1  0  0  0  0
M  END
