4dfu_ligand
 OpenBabel08222323353D

 32 34  0  0  0  0  0  0  0  0999 V2000
   -4.8260   24.5190  -29.3880 C   0  0  0  0  0  0  0  0  0  0  0  0
   -4.7970   25.8050  -29.9150 C   0  0  0  0  0  0  0  0  0  0  0  0
   -5.4160   26.0650  -31.1390 C   0  0  0  0  0  0  0  0  0  0  0  0
   -5.9110   25.0020  -31.8690 C   0  0  0  0  0  0  0  0  0  0  0  0
   -6.0090   23.7270  -31.3340 C   0  0  0  0  0  0  0  0  0  0  0  0
   -5.4260   23.4820  -30.1000 C   0  0  0  0  0  0  0  0  0  0  0  0
   -5.3480   27.3400  -31.7240 C   0  0  0  0  0  0  0  0  0  0  0  0
   -5.7730   27.5840  -33.0330 C   0  0  0  0  0  0  0  0  0  0  0  0
   -6.2330   26.4810  -33.7400 C   0  0  0  0  0  0  0  0  0  0  0  0
   -6.6490   26.3630  -35.0640 C   0  0  0  0  0  0  0  0  0  0  0  0
   -7.0100   25.1010  -35.5360 C   0  0  0  0  0  0  0  0  0  0  0  0
   -7.4680   24.9310  -36.8450 C   0  0  0  0  0  0  0  0  0  0  0  0
   -7.6260   26.0420  -37.6700 C   0  0  0  0  0  0  0  0  0  0  0  0
   -7.3080   27.3130  -37.1930 C   0  0  0  0  0  0  0  0  0  0  0  0
   -6.8350   27.4780  -35.8880 C   0  0  0  0  0  0  0  0  0  0  0  0
   -6.5090   25.4110  -32.9780 O   0  0  0  0  0  0  0  0  0  0  0  0
   -4.8970   28.2580  -31.0600 O   0  0  0  0  0  0  0  0  0  0  0  0
   -7.4660   28.3960  -38.0110 O   0  0  0  0  0  0  0  0  0  0  0  0
   -8.0940   25.8970  -38.9430 O   0  0  0  0  0  0  0  0  0  0  0  0
   -5.6690   28.8200  -33.5720 O   0  0  0  0  0  0  0  0  0  0  0  0
   -5.4250   22.2210  -29.5840 O   0  0  0  0  0  0  0  0  0  0  0  0
   -4.2070   26.8060  -29.2110 O   0  0  0  0  0  0  0  0  0  0  0  0
   -4.3778   24.3209  -28.4143 H   0  0  0  0  0  0  0  0  0  0  0  0
   -6.5321   22.9356  -31.8708 H   0  0  0  0  0  0  0  0  0  0  0  0
   -6.9339   24.2371  -34.8757 H   0  0  0  0  0  0  0  0  0  0  0  0
   -7.7005   23.9338  -37.2187 H   0  0  0  0  0  0  0  0  0  0  0  0
   -6.6109   28.4763  -35.5122 H   0  0  0  0  0  0  0  0  0  0  0  0
   -6.6198   28.8344  -38.1267 H   0  0  0  0  0  0  0  0  0  0  0  0
   -8.2643   24.9683  -39.1163 H   0  0  0  0  0  0  0  0  0  0  0  0
   -5.3314   29.4288  -32.9109 H   0  0  0  0  0  0  0  0  0  0  0  0
   -4.9589   21.6321  -30.1820 H   0  0  0  0  0  0  0  0  0  0  0  0
   -4.8621   27.4742  -28.9967 H   0  0  0  0  0  0  0  0  0  0  0  0
  1  2  2  0  0  0  0
  1  6  1  0  0  0  0
  1 23  1  0  0  0  0
  2  3  1  0  0  0  0
  2 22  1  0  0  0  0
  3  4  2  0  0  0  0
  3  7  1  0  0  0  0
  4  5  1  0  0  0  0
  4 16  1  0  0  0  0
  5  6  2  0  0  0  0
  5 24  1  0  0  0  0
  6 21  1  0  0  0  0
  7  8  1  0  0  0  0
  7 17  2  0  0  0  0
  8  9  2  0  0  0  0
  8 20  1  0  0  0  0
  9 10  1  0  0  0  0
  9 16  1  0  0  0  0
 10 11  2  0  0  0  0
 10 15  1  0  0  0  0
 11 12  1  0  0  0  0
 11 25  1  0  0  0  0
 12 13  2  0  0  0  0
 12 26  1  0  0  0  0
 13 14  1  0  0  0  0
 13 19  1  0  0  0  0
 14 15  2  0  0  0  0
 14 18  1  0  0  0  0
 15 27  1  0  0  0  0
 18 28  1  0  0  0  0
 19 29  1  0  0  0  0
 20 30  1  0  0  0  0
 21 31  1  0  0  0  0
 22 32  1  0  0  0  0
M  END
