4dhm_ligand
 OpenBabel08222323353D

 36 37  0  0  0  0  0  0  0  0999 V2000
   20.9030   14.7030   -9.7870 O   0  0  0  0  0  1  0  0  0  0  0  0
   21.9380   13.6540  -10.3520 P   0  0  0  0  0  0  0  0  0  0  0  0
   21.6940   13.1780  -11.8190 O   0  0  0  0  0  1  0  0  0  0  0  0
   21.9420   12.5000   -9.3650 O   0  0  0  0  0  0  0  0  0  0  0  0
   23.5700   14.4750  -10.3600 C   0  0  0  0  0  0  0  0  0  0  0  0
   23.6610   15.8380  -10.0700 C   0  0  0  0  0  0  0  0  0  0  0  0
   24.9740   16.4260  -10.0960 C   0  0  0  0  0  0  0  0  0  0  0  0
   26.1190   15.6950  -10.4080 C   0  0  0  0  0  0  0  0  0  0  0  0
   25.9870   14.3270  -10.7140 C   0  0  0  0  0  0  0  0  0  0  0  0
   24.7040   13.7470  -10.7140 C   0  0  0  0  0  0  0  0  0  0  0  0
   24.5340   12.4050  -11.0080 O   0  0  0  0  0  0  0  0  0  0  0  0
   25.6220   11.4480  -10.8170 C   0  0  0  0  0  0  0  0  0  0  0  0
   24.9900   10.0360  -10.5610 C   0  0  0  0  0  0  0  0  0  0  0  0
   25.6960    9.0270  -10.6210 O   0  0  0  0  0  0  0  0  0  0  0  0
   23.6530   10.0670  -10.2750 N   0  0  0  0  0  0  0  0  0  0  0  0
   22.9550    8.9570   -9.9680 C   0  0  0  0  0  0  0  0  0  0  0  0
   23.0020    7.7760  -10.7050 C   0  0  0  0  0  0  0  0  0  0  0  0
   22.2330    6.6560  -10.2970 C   0  0  0  0  0  0  0  0  0  0  0  0
   22.3040    5.4510  -11.0140 C   0  0  0  0  0  0  0  0  0  0  0  0
   22.3700    4.3640  -10.2150 F   0  0  0  0  0  0  0  0  0  0  0  0
   23.5250    5.3430  -11.7280 F   0  0  0  0  0  0  0  0  0  0  0  0
   21.1890    5.3960  -11.8170 F   0  0  0  0  0  0  0  0  0  0  0  0
   21.3850    6.7580   -9.1830 C   0  0  0  0  0  0  0  0  0  0  0  0
   21.3440    7.9250   -8.4490 C   0  0  0  0  0  0  0  0  0  0  0  0
   22.1230    9.0230   -8.8480 C   0  0  0  0  0  0  0  0  0  0  0  0
   22.7816   16.4269   -9.8357 H   0  0  0  0  0  0  0  0  0  0  0  0
   25.0768   17.4798   -9.8636 H   0  0  0  0  0  0  0  0  0  0  0  0
   27.0930   16.1708  -10.4149 H   0  0  0  0  0  0  0  0  0  0  0  0
   26.8607   13.7289  -10.9463 H   0  0  0  0  0  0  0  0  0  0  0  0
   26.2326   11.7455   -9.9517 H   0  0  0  0  0  0  0  0  0  0  0  0
   26.2529   11.4162  -11.7175 H   0  0  0  0  0  0  0  0  0  0  0  0
   23.1763   10.9459  -10.2946 H   0  0  0  0  0  0  0  0  0  0  0  0
   23.6256    7.7128  -11.5894 H   0  0  0  0  0  0  0  0  0  0  0  0
   20.7613    5.9181   -8.8991 H   0  0  0  0  0  0  0  0  0  0  0  0
   20.7142    7.9941   -7.5694 H   0  0  0  0  0  0  0  0  0  0  0  0
   22.0777    9.9417   -8.2744 H   0  0  0  0  0  0  0  0  0  0  0  0
  1  2  1  0  0  0  0
  2  3  1  0  0  0  0
  2  4  2  0  0  0  0
  2  5  1  0  0  0  0
  5  6  2  0  0  0  0
  5 10  1  0  0  0  0
  6  7  1  0  0  0  0
  6 26  1  0  0  0  0
  7  8  2  0  0  0  0
  7 27  1  0  0  0  0
  8  9  1  0  0  0  0
  8 28  1  0  0  0  0
  9 10  2  0  0  0  0
  9 29  1  0  0  0  0
 10 11  1  0  0  0  0
 11 12  1  0  0  0  0
 12 13  1  0  0  0  0
 12 30  1  0  0  0  0
 12 31  1  0  0  0  0
 13 14  2  0  0  0  0
 13 15  1  0  0  0  0
 15 16  1  0  0  0  0
 15 32  1  0  0  0  0
 16 17  2  0  0  0  0
 16 25  1  0  0  0  0
 17 18  1  0  0  0  0
 17 33  1  0  0  0  0
 18 19  1  0  0  0  0
 18 23  2  0  0  0  0
 19 20  1  0  0  0  0
 19 21  1  0  0  0  0
 19 22  1  0  0  0  0
 23 24  1  0  0  0  0
 23 34  1  0  0  0  0
 24 25  2  0  0  0  0
 24 35  1  0  0  0  0
 25 36  1  0  0  0  0
M  END
