4dhn_ligand
 OpenBabel08222323353D

 36 37  0  0  0  0  0  0  0  0999 V2000
   22.0450    8.2410   -8.9050 C   0  0  0  0  0  0  0  0  0  0  0  0
   20.9120    7.2950   -9.3110 C   0  0  0  0  0  0  0  0  0  0  0  0
   20.9890    7.1440  -10.8120 C   0  0  0  0  0  0  0  0  0  0  0  0
   22.1530    7.9790  -11.3180 C   0  0  0  0  0  0  0  0  0  0  0  0
   23.0020    8.2550  -10.1070 C   0  0  0  0  0  0  0  0  0  0  0  0
   23.6070    9.6000  -10.2700 N   0  0  0  0  0  0  0  0  0  0  0  0
   24.9270    9.7320  -10.4890 C   0  0  0  0  0  0  0  0  0  0  0  0
   25.6890    8.7700  -10.6380 O   0  0  0  0  0  0  0  0  0  0  0  0
   25.5820   11.1120  -10.6200 C   0  0  0  0  0  0  0  0  0  0  0  0
   24.4700   12.0250  -10.8160 O   0  0  0  0  0  0  0  0  0  0  0  0
   24.6680   13.3690  -10.6060 C   0  0  0  0  0  0  0  0  0  0  0  0
   25.9430   13.9550  -10.5830 C   0  0  0  0  0  0  0  0  0  0  0  0
   26.0320   15.3580  -10.3670 C   0  0  0  0  0  0  0  0  0  0  0  0
   24.8760   16.1250  -10.1810 C   0  0  0  0  0  0  0  0  0  0  0  0
   23.6020   15.5170  -10.2100 C   0  0  0  0  0  0  0  0  0  0  0  0
   23.5280   14.1350  -10.4250 C   0  0  0  0  0  0  0  0  0  0  0  0
   21.8300   13.4050  -10.4070 P   0  0  0  0  0  0  0  0  0  0  0  0
   21.8300   12.1700   -9.4600 O   0  0  0  0  0  1  0  0  0  0  0  0
   21.6210   12.9540  -11.8810 O   0  0  0  0  0  1  0  0  0  0  0  0
   20.8330   14.4520   -9.9030 O   0  0  0  0  0  0  0  0  0  0  0  0
   22.5580    7.8666   -8.0069 H   0  0  0  0  0  0  0  0  0  0  0  0
   21.6544    9.2507   -8.7102 H   0  0  0  0  0  0  0  0  0  0  0  0
   19.9401    7.7217   -9.0224 H   0  0  0  0  0  0  0  0  0  0  0  0
   21.0421    6.3170   -8.8245 H   0  0  0  0  0  0  0  0  0  0  0  0
   20.0526    7.4960  -11.2695 H   0  0  0  0  0  0  0  0  0  0  0  0
   21.1493    6.0871  -11.0715 H   0  0  0  0  0  0  0  0  0  0  0  0
   21.7898    8.9203  -11.7561 H   0  0  0  0  0  0  0  0  0  0  0  0
   22.7278    7.4213  -12.0721 H   0  0  0  0  0  0  0  0  0  0  0  0
   23.7872    7.4938   -9.9888 H   0  0  0  0  0  0  0  0  0  0  0  0
   23.0288   10.4142  -10.2166 H   0  0  0  0  0  0  0  0  0  0  0  0
   26.2636   11.1386  -11.4830 H   0  0  0  0  0  0  0  0  0  0  0  0
   26.1379   11.3670   -9.7057 H   0  0  0  0  0  0  0  0  0  0  0  0
   26.8347   13.3554  -10.7258 H   0  0  0  0  0  0  0  0  0  0  0  0
   27.0039   15.8376  -10.3462 H   0  0  0  0  0  0  0  0  0  0  0  0
   24.9594   17.1927  -10.0136 H   0  0  0  0  0  0  0  0  0  0  0  0
   22.7027   16.1057  -10.0692 H   0  0  0  0  0  0  0  0  0  0  0  0
  1  2  1  0  0  0  0
  1  5  1  0  0  0  0
  1 21  1  0  0  0  0
  1 22  1  0  0  0  0
  2  3  1  0  0  0  0
  2 23  1  0  0  0  0
  2 24  1  0  0  0  0
  3  4  1  0  0  0  0
  3 25  1  0  0  0  0
  3 26  1  0  0  0  0
  4  5  1  0  0  0  0
  4 27  1  0  0  0  0
  4 28  1  0  0  0  0
  5  6  1  0  0  0  0
  5 29  1  0  0  0  0
  6  7  1  0  0  0  0
  6 30  1  0  0  0  0
  7  8  2  0  0  0  0
  7  9  1  0  0  0  0
  9 10  1  0  0  0  0
  9 31  1  0  0  0  0
  9 32  1  0  0  0  0
 10 11  1  0  0  0  0
 11 12  2  0  0  0  0
 11 16  1  0  0  0  0
 12 13  1  0  0  0  0
 12 33  1  0  0  0  0
 13 14  2  0  0  0  0
 13 34  1  0  0  0  0
 14 15  1  0  0  0  0
 14 35  1  0  0  0  0
 15 16  2  0  0  0  0
 15 36  1  0  0  0  0
 16 17  1  0  0  0  0
 17 18  1  0  0  0  0
 17 19  1  0  0  0  0
 17 20  2  0  0  0  0
M  END
