4dhq_ligand
 OpenBabel08222323353D

 33 34  0  0  0  0  0  0  0  0999 V2000
   20.9610   14.7690   -9.8220 O   0  0  0  0  0  1  0  0  0  0  0  0
   21.9600   13.7000  -10.3810 P   0  0  0  0  0  0  0  0  0  0  0  0
   21.6140   13.2410  -11.8060 O   0  0  0  0  0  1  0  0  0  0  0  0
   21.9340   12.5530   -9.4000 O   0  0  0  0  0  0  0  0  0  0  0  0
   23.6490   14.4890  -10.4240 C   0  0  0  0  0  0  0  0  0  0  0  0
   23.7830   15.8450  -10.0880 C   0  0  0  0  0  0  0  0  0  0  0  0
   25.0940   16.3860  -10.1360 C   0  0  0  0  0  0  0  0  0  0  0  0
   26.2160   15.6100  -10.4840 C   0  0  0  0  0  0  0  0  0  0  0  0
   26.0530   14.2350  -10.8010 C   0  0  0  0  0  0  0  0  0  0  0  0
   24.7460   13.7140  -10.7630 C   0  0  0  0  0  0  0  0  0  0  0  0
   24.4900   12.3950  -11.0790 O   0  0  0  0  0  0  0  0  0  0  0  0
   25.5200   11.4080  -10.8830 C   0  0  0  0  0  0  0  0  0  0  0  0
   24.8370   10.0390  -10.6410 C   0  0  0  0  0  0  0  0  0  0  0  0
   25.4990    9.0020  -10.7330 O   0  0  0  0  0  0  0  0  0  0  0  0
   23.5260   10.1160  -10.2880 N   0  0  0  0  0  0  0  0  0  0  0  0
   22.7790    9.0400   -9.9700 C   0  0  0  0  0  0  0  0  0  0  0  0
   22.5000    8.0160  -10.8770 C   0  0  0  0  0  0  0  0  0  0  0  0
   21.6630    6.9760  -10.4280 C   0  0  0  0  0  0  0  0  0  0  0  0
   21.3610    5.7100  -11.5090 Cl  0  0  0  0  0  0  0  0  0  0  0  0
   21.0910    6.9110   -9.1520 C   0  0  0  0  0  0  0  0  0  0  0  0
   21.3640    7.9350   -8.2710 C   0  0  0  0  0  0  0  0  0  0  0  0
   22.1980    8.9870   -8.6970 C   0  0  0  0  0  0  0  0  0  0  0  0
   22.9280   16.4488   -9.8060 H   0  0  0  0  0  0  0  0  0  0  0  0
   25.2366   17.4335   -9.8963 H   0  0  0  0  0  0  0  0  0  0  0  0
   27.2016   16.0606  -10.5100 H   0  0  0  0  0  0  0  0  0  0  0  0
   26.9010   13.6121  -11.0617 H   0  0  0  0  0  0  0  0  0  0  0  0
   26.1333   11.6777  -10.0106 H   0  0  0  0  0  0  0  0  0  0  0  0
   26.1583   11.3530  -11.7771 H   0  0  0  0  0  0  0  0  0  0  0  0
   23.0938   11.0174  -10.2630 H   0  0  0  0  0  0  0  0  0  0  0  0
   22.9089    8.0211  -11.8809 H   0  0  0  0  0  0  0  0  0  0  0  0
   20.4539    6.0819   -8.8661 H   0  0  0  0  0  0  0  0  0  0  0  0
   20.9456    7.9309   -7.2710 H   0  0  0  0  0  0  0  0  0  0  0  0
   22.4003    9.7962   -8.0047 H   0  0  0  0  0  0  0  0  0  0  0  0
  1  2  1  0  0  0  0
  2  3  1  0  0  0  0
  2  4  2  0  0  0  0
  2  5  1  0  0  0  0
  5  6  2  0  0  0  0
  5 10  1  0  0  0  0
  6  7  1  0  0  0  0
  6 23  1  0  0  0  0
  7  8  2  0  0  0  0
  7 24  1  0  0  0  0
  8  9  1  0  0  0  0
  8 25  1  0  0  0  0
  9 10  2  0  0  0  0
  9 26  1  0  0  0  0
 10 11  1  0  0  0  0
 11 12  1  0  0  0  0
 12 13  1  0  0  0  0
 12 27  1  0  0  0  0
 12 28  1  0  0  0  0
 13 14  2  0  0  0  0
 13 15  1  0  0  0  0
 15 16  1  0  0  0  0
 15 29  1  0  0  0  0
 16 17  2  0  0  0  0
 16 22  1  0  0  0  0
 17 18  1  0  0  0  0
 17 30  1  0  0  0  0
 18 19  1  0  0  0  0
 18 20  2  0  0  0  0
 20 21  1  0  0  0  0
 20 31  1  0  0  0  0
 21 22  2  0  0  0  0
 21 32  1  0  0  0  0
 22 33  1  0  0  0  0
M  END
