4dhs_ligand
 OpenBabel08222323353D

 33 34  0  0  0  0  0  0  0  0999 V2000
   20.8860   14.6260   -9.7690 O   0  0  0  0  0  1  0  0  0  0  0  0
   21.9410   13.5980  -10.3920 P   0  0  0  0  0  0  0  0  0  0  0  0
   21.6920   13.0790  -11.8370 O   0  0  0  0  0  1  0  0  0  0  0  0
   21.8810   12.3940   -9.4770 O   0  0  0  0  0  0  0  0  0  0  0  0
   23.6140   14.4080  -10.4240 C   0  0  0  0  0  0  0  0  0  0  0  0
   23.7700   15.7720  -10.1540 C   0  0  0  0  0  0  0  0  0  0  0  0
   25.0530   16.3370  -10.1640 C   0  0  0  0  0  0  0  0  0  0  0  0
   26.1900   15.5680  -10.4690 C   0  0  0  0  0  0  0  0  0  0  0  0
   26.0070   14.2050  -10.7500 C   0  0  0  0  0  0  0  0  0  0  0  0
   24.7220   13.6490  -10.7170 C   0  0  0  0  0  0  0  0  0  0  0  0
   24.4660   12.3360  -10.9890 O   0  0  0  0  0  0  0  0  0  0  0  0
   25.4990   11.3430  -10.8430 C   0  0  0  0  0  0  0  0  0  0  0  0
   24.8090   10.0180  -10.4850 C   0  0  0  0  0  0  0  0  0  0  0  0
   25.4490    8.9680  -10.4670 O   0  0  0  0  0  0  0  0  0  0  0  0
   23.4970   10.1220  -10.2160 N   0  0  0  0  0  0  0  0  0  0  0  0
   22.7850    9.0630   -9.8190 C   0  0  0  0  0  0  0  0  0  0  0  0
   22.2880    8.1670  -10.7450 C   0  0  0  0  0  0  0  0  0  0  0  0
   21.5300    7.0940  -10.3000 C   0  0  0  0  0  0  0  0  0  0  0  0
   20.9800    6.0360  -11.4110 Cl  0  0  0  0  0  0  0  0  0  0  0  0
   21.2590    6.8870   -8.9590 C   0  0  0  0  0  0  0  0  0  0  0  0
   21.7490    7.7820   -8.0360 C   0  0  0  0  0  0  0  0  0  0  0  0
   21.4120    7.5160   -6.3830 Cl  0  0  0  0  0  0  0  0  0  0  0  0
   22.5060    8.8770   -8.4590 C   0  0  0  0  0  0  0  0  0  0  0  0
   22.9044   16.3879   -9.9385 H   0  0  0  0  0  0  0  0  0  0  0  0
   25.1710   17.3892   -9.9316 H   0  0  0  0  0  0  0  0  0  0  0  0
   27.1778   16.0142  -10.4866 H   0  0  0  0  0  0  0  0  0  0  0  0
   26.8606   13.5825  -10.9927 H   0  0  0  0  0  0  0  0  0  0  0  0
   26.1922   11.6356  -10.0406 H   0  0  0  0  0  0  0  0  0  0  0  0
   26.0544   11.2356  -11.7864 H   0  0  0  0  0  0  0  0  0  0  0  0
   23.0446   11.0084  -10.3147 H   0  0  0  0  0  0  0  0  0  0  0  0
   22.4870    8.3001  -11.8022 H   0  0  0  0  0  0  0  0  0  0  0  0
   20.6705    6.0340   -8.6410 H   0  0  0  0  0  0  0  0  0  0  0  0
   22.8799    9.5872   -7.7303 H   0  0  0  0  0  0  0  0  0  0  0  0
  1  2  1  0  0  0  0
  2  3  1  0  0  0  0
  2  4  2  0  0  0  0
  2  5  1  0  0  0  0
  5  6  2  0  0  0  0
  5 10  1  0  0  0  0
  6  7  1  0  0  0  0
  6 24  1  0  0  0  0
  7  8  2  0  0  0  0
  7 25  1  0  0  0  0
  8  9  1  0  0  0  0
  8 26  1  0  0  0  0
  9 10  2  0  0  0  0
  9 27  1  0  0  0  0
 10 11  1  0  0  0  0
 11 12  1  0  0  0  0
 12 13  1  0  0  0  0
 12 28  1  0  0  0  0
 12 29  1  0  0  0  0
 13 14  2  0  0  0  0
 13 15  1  0  0  0  0
 15 16  1  0  0  0  0
 15 30  1  0  0  0  0
 16 17  2  0  0  0  0
 16 23  1  0  0  0  0
 17 18  1  0  0  0  0
 17 31  1  0  0  0  0
 18 19  1  0  0  0  0
 18 20  2  0  0  0  0
 20 21  1  0  0  0  0
 20 32  1  0  0  0  0
 21 22  1  0  0  0  0
 21 23  2  0  0  0  0
 23 33  1  0  0  0  0
M  END
