4dht_ligand
 OpenBabel08222323353D

 39 40  0  0  0  0  0  0  0  0999 V2000
   22.3510    8.3200  -11.2230 C   0  0  0  0  0  0  0  0  0  0  0  0
   21.6940    6.9350  -10.9340 C   0  0  0  0  0  0  0  0  0  0  0  0
   20.8750    7.0270   -9.6370 C   0  0  0  0  0  0  0  0  0  0  0  0
   21.7360    7.3840   -8.4430 C   0  0  0  0  0  0  0  0  0  0  0  0
   22.6100    8.6270   -8.7490 C   0  0  0  0  0  0  0  0  0  0  0  0
   23.3240    8.5940  -10.0960 C   0  0  0  0  0  0  0  0  0  0  0  0
   23.9530    9.9030  -10.3440 N   0  0  0  0  0  0  0  0  0  0  0  0
   25.2280   10.0350  -10.6780 C   0  0  0  0  0  0  0  0  0  0  0  0
   26.0030    9.0800  -10.8200 O   0  0  0  0  0  0  0  0  0  0  0  0
   25.8040   11.4770  -10.8250 C   0  0  0  0  0  0  0  0  0  0  0  0
   24.6200   12.3280  -11.0130 O   0  0  0  0  0  0  0  0  0  0  0  0
   24.7390   13.6840  -10.7360 C   0  0  0  0  0  0  0  0  0  0  0  0
   26.0130   14.2580  -10.7210 C   0  0  0  0  0  0  0  0  0  0  0  0
   26.1190   15.6330  -10.4230 C   0  0  0  0  0  0  0  0  0  0  0  0
   24.9610   16.3590  -10.1380 C   0  0  0  0  0  0  0  0  0  0  0  0
   23.6690   15.7720  -10.1180 C   0  0  0  0  0  0  0  0  0  0  0  0
   23.6160   14.4040  -10.3670 C   0  0  0  0  0  0  0  0  0  0  0  0
   21.9790   13.5290  -10.4290 P   0  0  0  0  0  0  0  0  0  0  0  0
   20.9160   14.5970   -9.9100 O   0  0  0  0  0  1  0  0  0  0  0  0
   22.0190   12.2940   -9.4660 O   0  0  0  0  0  1  0  0  0  0  0  0
   21.6890   13.1150  -11.8330 O   0  0  0  0  0  0  0  0  0  0  0  0
   21.5802    9.1041  -11.2552 H   0  0  0  0  0  0  0  0  0  0  0  0
   22.8852    8.2912  -12.1842 H   0  0  0  0  0  0  0  0  0  0  0  0
   22.4781    6.1719  -10.8209 H   0  0  0  0  0  0  0  0  0  0  0  0
   21.0323    6.6600  -11.7686 H   0  0  0  0  0  0  0  0  0  0  0  0
   20.3958    6.0546   -9.4505 H   0  0  0  0  0  0  0  0  0  0  0  0
   20.1016    7.7994   -9.7600 H   0  0  0  0  0  0  0  0  0  0  0  0
   22.3903    6.5331   -8.2024 H   0  0  0  0  0  0  0  0  0  0  0  0
   21.0869    7.6023   -7.5822 H   0  0  0  0  0  0  0  0  0  0  0  0
   23.3721    8.7114   -7.9603 H   0  0  0  0  0  0  0  0  0  0  0  0
   21.9608    9.5147   -8.7281 H   0  0  0  0  0  0  0  0  0  0  0  0
   24.0936    7.8082  -10.0781 H   0  0  0  0  0  0  0  0  0  0  0  0
   23.3934   10.7271  -10.2564 H   0  0  0  0  0  0  0  0  0  0  0  0
   26.4720   11.5421  -11.6965 H   0  0  0  0  0  0  0  0  0  0  0  0
   26.3539   11.7705   -9.9187 H   0  0  0  0  0  0  0  0  0  0  0  0
   26.8947   13.6638  -10.9323 H   0  0  0  0  0  0  0  0  0  0  0  0
   27.0876   16.1197  -10.4154 H   0  0  0  0  0  0  0  0  0  0  0  0
   25.0528   17.4174   -9.9226 H   0  0  0  0  0  0  0  0  0  0  0  0
   22.7765   16.3547   -9.9205 H   0  0  0  0  0  0  0  0  0  0  0  0
  1  2  1  0  0  0  0
  1  6  1  0  0  0  0
  1 22  1  0  0  0  0
  1 23  1  0  0  0  0
  2  3  1  0  0  0  0
  2 24  1  0  0  0  0
  2 25  1  0  0  0  0
  3  4  1  0  0  0  0
  3 26  1  0  0  0  0
  3 27  1  0  0  0  0
  4  5  1  0  0  0  0
  4 28  1  0  0  0  0
  4 29  1  0  0  0  0
  5  6  1  0  0  0  0
  5 30  1  0  0  0  0
  5 31  1  0  0  0  0
  6  7  1  0  0  0  0
  6 32  1  0  0  0  0
  7  8  1  0  0  0  0
  7 33  1  0  0  0  0
  8  9  2  0  0  0  0
  8 10  1  0  0  0  0
 10 11  1  0  0  0  0
 10 34  1  0  0  0  0
 10 35  1  0  0  0  0
 11 12  1  0  0  0  0
 12 13  2  0  0  0  0
 12 17  1  0  0  0  0
 13 14  1  0  0  0  0
 13 36  1  0  0  0  0
 14 15  2  0  0  0  0
 14 37  1  0  0  0  0
 15 16  1  0  0  0  0
 15 38  1  0  0  0  0
 16 17  2  0  0  0  0
 16 39  1  0  0  0  0
 17 18  1  0  0  0  0
 18 19  1  0  0  0  0
 18 20  1  0  0  0  0
 18 21  2  0  0  0  0
M  END
