4di2_ligand
 OpenBabel08222323353D

 87 91  0  0  1  0  0  0  0  0999 V2000
   27.5020    0.2960   11.6700 C   0  0  0  0  0  0  0  0  0  0  0  0
   28.0810   -1.0320   11.1450 C   0  0  0  0  0  0  0  0  0  0  0  0
   29.2960   -0.2830   10.5860 C   0  0  0  0  0  0  0  0  0  0  0  0
   28.7770    1.0150   11.2310 C   0  0  0  0  0  0  0  0  0  0  0  0
   29.6360    1.4710   12.4240 C   0  0  0  0  0  0  0  0  0  0  0  0
   28.4980    2.0840   10.3030 O   0  0  0  0  0  0  0  0  0  0  0  0
   29.5780    2.8130    9.9040 C   0  0  0  0  0  0  0  0  0  0  0  0
   29.4230    3.5570    8.7930 N   0  0  0  0  0  0  0  0  0  0  0  0
   30.4070    4.3020    8.3130 C   0  0  0  0  0  0  0  0  0  0  0  0
   31.6490    4.3450    8.9440 C   0  0  0  0  0  0  0  0  0  0  0  0
   32.7720    5.2070    8.3370 C   0  0  0  0  0  0  0  0  0  0  0  0
   33.5630    4.4350    7.2380 C   0  0  0  0  0  0  0  0  0  0  0  0
   32.6220    3.7560    6.2300 C   0  0  0  0  0  0  0  0  0  0  0  0
   34.4850    3.3860    7.8570 C   0  0  0  0  0  0  0  0  0  0  0  0
   34.4350    5.4190    6.4540 C   0  0  0  0  0  0  0  0  0  0  0  0
   31.8550    3.5890   10.1020 C   0  0  0  0  0  0  0  0  0  0  0  0
   30.8030    2.8160   10.6060 C   0  0  0  0  0  0  0  0  0  0  0  0
   30.9990    1.9730   11.8970 C   0  0  1  0  0  0  0  0  0  0  0  0
   31.7140    2.7350   12.9620 N   0  3  0  0  0  0  0  0  0  0  0  0
   31.0660    4.0210   13.3300 C   0  0  0  0  0  0  0  0  0  0  0  0
   32.1010    4.9720   13.9810 C   0  0  1  0  0  0  0  0  0  0  0  0
   33.2450    5.0620   13.1410 O   0  0  0  0  0  0  0  0  0  0  0  0
   31.5700    6.4040   14.2400 C   0  0  1  0  0  0  0  0  0  0  0  0
   30.2940    6.3690   14.9830 N   0  0  0  0  0  0  0  0  0  0  0  0
   29.1130    6.5630   14.3880 C   0  0  0  0  0  0  0  0  0  0  0  0
   28.9900    6.7860   13.1830 O   0  0  0  0  0  0  0  0  0  0  0  0
   27.8340    6.5140   15.2230 C   0  0  1  0  0  0  0  0  0  0  0  0
   27.2390    5.1100   15.1770 C   0  0  0  0  0  0  0  0  0  0  0  0
   28.1260    6.8720   16.5750 O   0  0  0  0  0  0  0  0  0  0  0  0
   27.8590    8.2570   16.7610 C   0  0  0  0  0  0  0  0  0  0  0  0
   32.6220    7.2620   14.9790 C   0  0  0  0  0  0  0  0  0  0  0  0
   32.0680    8.5880   15.5200 C   0  0  0  0  0  0  0  0  0  0  0  0
   31.5920    8.6330   16.8270 C   0  0  0  0  0  0  0  0  0  0  0  0
   32.0380    9.7420   14.7370 C   0  0  0  0  0  0  0  0  0  0  0  0
   31.5230   10.9300   15.2700 C   0  0  0  0  0  0  0  0  0  0  0  0
   31.0440   10.9650   16.5860 C   0  0  0  0  0  0  0  0  0  0  0  0
   31.0880    9.8050   17.3710 C   0  0  0  0  0  0  0  0  0  0  0  0
   30.5850    9.7720   18.6730 C   0  0  0  0  0  0  0  0  0  0  0  0
   29.5530   10.4620   19.1700 N   0  0  0  0  0  0  0  0  0  0  0  0
   29.2560   10.1980   20.4580 C   0  0  0  0  0  0  0  0  0  0  0  0
   30.0150    9.2690   21.0590 C   0  0  0  0  0  0  0  0  0  0  0  0
   31.1360    8.7330   19.9090 S   0  0  0  0  0  0  0  0  0  0  0  0
   27.3266    0.3129   12.7558 H   0  0  0  0  0  0  0  0  0  0  0  0
   26.5939    0.6296   11.1466 H   0  0  0  0  0  0  0  0  0  0  0  0
   27.4619   -1.5193   10.3773 H   0  0  0  0  0  0  0  0  0  0  0  0
   28.3255   -1.7582   11.9342 H   0  0  0  0  0  0  0  0  0  0  0  0
   29.3413   -0.2537    9.4873 H   0  0  0  0  0  0  0  0  0  0  0  0
   30.2613   -0.6294   10.9837 H   0  0  0  0  0  0  0  0  0  0  0  0
   29.7941    0.6255   13.1097 H   0  0  0  0  0  0  0  0  0  0  0  0
   29.1240    2.2852   12.9577 H   0  0  0  0  0  0  0  0  0  0  0  0
   30.2440    4.8875    7.4154 H   0  0  0  0  0  0  0  0  0  0  0  0
   33.4678    5.5004    9.1369 H   0  0  0  0  0  0  0  0  0  0  0  0
   32.3271    6.1079    7.8892 H   0  0  0  0  0  0  0  0  0  0  0  0
   33.2174    3.2238    5.4736 H   0  0  0  0  0  0  0  0  0  0  0  0
   32.0005    4.5183    5.7375 H   0  0  0  0  0  0  0  0  0  0  0  0
   31.9747    3.0399    6.7575 H   0  0  0  0  0  0  0  0  0  0  0  0
   35.1591    3.8705    8.5787 H   0  0  0  0  0  0  0  0  0  0  0  0
   35.0791    2.9068    7.0649 H   0  0  0  0  0  0  0  0  0  0  0  0
   33.8807    2.6255    8.3732 H   0  0  0  0  0  0  0  0  0  0  0  0
   33.7973    6.1889    5.9951 H   0  0  0  0  0  0  0  0  0  0  0  0
   34.9811    4.8784    5.6669 H   0  0  0  0  0  0  0  0  0  0  0  0
   35.1532    5.8969    7.1365 H   0  0  0  0  0  0  0  0  0  0  0  0
   32.8165    3.6015   10.6025 H   0  0  0  0  0  0  0  0  0  0  0  0
   31.6121    1.0971   11.6383 H   0  0  0  0  0  0  0  0  0  0  0  0
   32.6473    2.9330   12.6367 H   0  0  0  0  0  0  0  0  0  0  0  0
   31.7610    2.1573   13.7867 H   0  0  0  0  0  0  0  0  0  0  0  0
   30.2514    3.8269   14.0433 H   0  0  0  0  0  0  0  0  0  0  0  0
   30.6563    4.4939   12.4253 H   0  0  0  0  0  0  0  0  0  0  0  0
   32.3980    4.5385   14.9474 H   0  0  0  0  0  0  0  0  0  0  0  0
   33.8823    5.6447   13.5371 H   0  0  0  0  0  0  0  0  0  0  0  0
   31.3784    6.8738   13.2640 H   0  0  0  0  0  0  0  0  0  0  0  0
   30.3144    6.1937   15.9673 H   0  0  0  0  0  0  0  0  0  0  0  0
   27.1060    7.2278   14.8100 H   0  0  0  0  0  0  0  0  0  0  0  0
   26.3192    5.0817   15.7797 H   0  0  0  0  0  0  0  0  0  0  0  0
   27.9654    4.3904   15.5826 H   0  0  0  0  0  0  0  0  0  0  0  0
   27.0033    4.8456   14.1356 H   0  0  0  0  0  0  0  0  0  0  0  0
   28.0825    8.5370   17.8010 H   0  0  0  0  0  0  0  0  0  0  0  0
   26.7989    8.4581   16.5469 H   0  0  0  0  0  0  0  0  0  0  0  0
   28.4891    8.8467   16.0790 H   0  0  0  0  0  0  0  0  0  0  0  0
   33.4401    7.4874   14.2790 H   0  0  0  0  0  0  0  0  0  0  0  0
   33.0137    6.6784   15.8252 H   0  0  0  0  0  0  0  0  0  0  0  0
   31.6156    7.7339   17.4320 H   0  0  0  0  0  0  0  0  0  0  0  0
   32.4119    9.7192   13.7198 H   0  0  0  0  0  0  0  0  0  0  0  0
   31.4948   11.8267   14.6616 H   0  0  0  0  0  0  0  0  0  0  0  0
   30.6414   11.8846   16.9950 H   0  0  0  0  0  0  0  0  0  0  0  0
   28.4479   10.7085   20.9799 H   0  0  0  0  0  0  0  0  0  0  0  0
   29.9269    8.9257   22.0887 H   0  0  0  0  0  0  0  0  0  0  0  0
  1  2  1  0  0  0  0
  1  4  1  0  0  0  0
  1 43  1  0  0  0  0
  1 44  1  0  0  0  0
  2  3  1  0  0  0  0
  2 45  1  0  0  0  0
  2 46  1  0  0  0  0
  3  4  1  0  0  0  0
  3 47  1  0  0  0  0
  3 48  1  0  0  0  0
  4  5  1  0  0  0  0
  4  6  1  0  0  0  0
  5 18  1  0  0  0  0
  5 49  1  0  0  0  0
  5 50  1  0  0  0  0
  6  7  1  0  0  0  0
  7  8  2  0  0  0  0
  7 17  1  0  0  0  0
  8  9  1  0  0  0  0
  9 10  2  0  0  0  0
  9 51  1  0  0  0  0
 10 11  1  0  0  0  0
 10 16  1  0  0  0  0
 11 12  1  0  0  0  0
 11 52  1  0  0  0  0
 11 53  1  0  0  0  0
 12 13  1  0  0  0  0
 12 14  1  0  0  0  0
 12 15  1  0  0  0  0
 13 54  1  0  0  0  0
 13 55  1  0  0  0  0
 13 56  1  0  0  0  0
 14 57  1  0  0  0  0
 14 58  1  0  0  0  0
 14 59  1  0  0  0  0
 15 60  1  0  0  0  0
 15 61  1  0  0  0  0
 15 62  1  0  0  0  0
 16 17  2  0  0  0  0
 16 63  1  0  0  0  0
 17 18  1  0  0  0  0
 18 19  1  0  0  0  0
 18 64  1  6  0  0  0
 19 20  1  0  0  0  0
 19 65  1  0  0  0  0
 19 66  1  0  0  0  0
 20 21  1  0  0  0  0
 20 67  1  0  0  0  0
 20 68  1  0  0  0  0
 21 22  1  0  0  0  0
 21 23  1  0  0  0  0
 21 69  1  1  0  0  0
 22 70  1  0  0  0  0
 23 24  1  0  0  0  0
 23 31  1  0  0  0  0
 23 71  1  6  0  0  0
 24 25  1  0  0  0  0
 24 72  1  0  0  0  0
 25 26  2  0  0  0  0
 25 27  1  0  0  0  0
 27 28  1  0  0  0  0
 27 29  1  0  0  0  0
 27 73  1  6  0  0  0
 28 74  1  0  0  0  0
 28 75  1  0  0  0  0
 28 76  1  0  0  0  0
 29 30  1  0  0  0  0
 30 77  1  0  0  0  0
 30 78  1  0  0  0  0
 30 79  1  0  0  0  0
 31 32  1  0  0  0  0
 31 80  1  0  0  0  0
 31 81  1  0  0  0  0
 32 33  2  0  0  0  0
 32 34  1  0  0  0  0
 33 37  1  0  0  0  0
 33 82  1  0  0  0  0
 34 35  2  0  0  0  0
 34 83  1  0  0  0  0
 35 36  1  0  0  0  0
 35 84  1  0  0  0  0
 36 37  2  0  0  0  0
 36 85  1  0  0  0  0
 37 38  1  0  0  0  0
 38 39  2  0  0  0  0
 38 42  1  0  0  0  0
 39 40  1  0  0  0  0
 40 41  2  0  0  0  0
 40 86  1  0  0  0  0
 41 42  1  0  0  0  0
 41 87  1  0  0  0  0
M  CHG  1  19   1
M  END
