4dij_ligand
 OpenBabel08222323353D

 70 75  0  0  0  0  0  0  0  0999 V2000
   12.7090   -9.0750   18.8870 Cl  0  0  0  0  0  0  0  0  0  0  0  0
   12.0520   -7.6310   18.1510 C   0  0  0  0  0  0  0  0  0  0  0  0
    8.7670   -6.0910   22.2560 Cl  0  0  0  0  0  0  0  0  0  0  0  0
   12.7340   -6.4230   18.3160 C   0  0  0  0  0  0  0  0  0  0  0  0
   12.1610   -5.3010   17.7070 C   0  0  0  0  0  0  0  0  0  0  0  0
   12.5870   -4.0290   17.7100 N   0  0  0  0  0  0  0  0  0  0  0  0
   11.7800   -3.2440   17.0240 C   0  0  0  0  0  0  0  0  0  0  0  0
   10.7620   -3.9760   16.5050 C   0  0  0  0  0  0  0  0  0  0  0  0
   10.9960   -5.3890   16.9740 C   0  0  0  0  0  0  0  0  0  0  0  0
   10.3070   -6.5850   16.7980 C   0  0  0  0  0  0  0  0  0  0  0  0
   10.8650   -7.7180   17.4000 C   0  0  0  0  0  0  0  0  0  0  0  0
    9.5420   -3.6910   15.7060 C   0  0  0  0  0  0  0  0  0  0  0  0
    8.4990   -3.0080   16.1850 N   0  0  0  0  0  0  0  0  0  0  0  0
    7.5430   -2.9440   15.2960 C   0  0  0  0  0  0  0  0  0  0  0  0
    7.8920   -3.5820   14.2700 N   0  0  0  0  0  0  0  0  0  0  0  0
    9.2090   -4.1250   14.4630 C   0  0  0  0  0  0  0  0  0  0  0  0
    9.9100   -4.9320   13.3980 C   0  0  0  0  0  0  0  0  0  0  0  0
   11.3070   -4.9210   13.3500 C   0  0  0  0  0  0  0  0  0  0  0  0
   11.9860   -5.6430   12.3550 C   0  0  0  0  0  0  0  0  0  0  0  0
   11.2530   -6.3720   11.4080 C   0  0  0  0  0  0  0  0  0  0  0  0
    9.8570   -6.3800   11.4430 C   0  0  0  0  0  0  0  0  0  0  0  0
    9.1840   -5.6520   12.4330 C   0  0  0  0  0  0  0  0  0  0  0  0
    8.4020   -2.3500   17.4820 C   0  0  0  0  0  0  0  0  0  0  0  0
    8.4870   -3.3210   18.6600 C   0  0  0  0  0  0  0  0  0  0  0  0
    7.8890   -4.5910   18.6150 C   0  0  0  0  0  0  0  0  0  0  0  0
    7.9810   -5.4480   19.7210 C   0  0  0  0  0  0  0  0  0  0  0  0
    8.6630   -5.0230   20.8690 C   0  0  0  0  0  0  0  0  0  0  0  0
    9.2600   -3.7520   20.9160 C   0  0  0  0  0  0  0  0  0  0  0  0
    9.1770   -2.8980   19.8040 C   0  0  0  0  0  0  0  0  0  0  0  0
   12.0350   -1.8030   16.8540 C   0  0  0  0  0  0  0  0  0  0  0  0
   12.9800   -1.3500   17.4920 O   0  0  0  0  0  0  0  0  0  0  0  0
   11.2970   -1.0570   16.0050 N   0  0  0  0  0  0  0  0  0  0  0  0
   11.5740    0.3650   15.8210 C   0  0  0  0  0  0  0  0  0  0  0  0
   11.4420    0.7060   14.3170 C   0  0  0  0  0  0  0  0  0  0  0  0
   10.0940    0.3220   13.8200 N   0  3  0  0  0  0  0  0  0  0  0  0
   10.0240    0.0680   12.3590 C   0  0  0  0  0  0  0  0  0  0  0  0
    8.6370   -0.5130   11.9940 C   0  0  0  0  0  0  0  0  0  0  0  0
    7.5890    0.3420   12.4850 O   0  0  0  0  0  0  0  0  0  0  0  0
    7.6240    0.5300   13.9140 C   0  0  0  0  0  0  0  0  0  0  0  0
    8.9770    1.1740   14.3090 C   0  0  0  0  0  0  0  0  0  0  0  0
   13.6551   -6.3585   18.8838 H   0  0  0  0  0  0  0  0  0  0  0  0
   13.4394   -3.7055   18.1892 H   0  0  0  0  0  0  0  0  0  0  0  0
    9.3879   -6.6361   16.2256 H   0  0  0  0  0  0  0  0  0  0  0  0
   10.3752   -8.6783   17.2861 H   0  0  0  0  0  0  0  0  0  0  0  0
    6.5959   -2.4218   15.4234 H   0  0  0  0  0  0  0  0  0  0  0  0
   11.8682   -4.3532   14.0833 H   0  0  0  0  0  0  0  0  0  0  0  0
   13.0694   -5.6367   12.3195 H   0  0  0  0  0  0  0  0  0  0  0  0
   11.7745   -6.9344   10.6419 H   0  0  0  0  0  0  0  0  0  0  0  0
    9.2969   -6.9466   10.7079 H   0  0  0  0  0  0  0  0  0  0  0  0
    8.1002   -5.6439   12.4550 H   0  0  0  0  0  0  0  0  0  0  0  0
    7.4389   -1.8211   17.5342 H   0  0  0  0  0  0  0  0  0  0  0  0
    9.2240   -1.6242   17.5678 H   0  0  0  0  0  0  0  0  0  0  0  0
    7.3566   -4.9085   17.7257 H   0  0  0  0  0  0  0  0  0  0  0  0
    7.5278   -6.4322   19.6882 H   0  0  0  0  0  0  0  0  0  0  0  0
    9.7838   -3.4310   21.8091 H   0  0  0  0  0  0  0  0  0  0  0  0
    9.6429   -1.9196   19.8305 H   0  0  0  0  0  0  0  0  0  0  0  0
   10.5503   -1.4839   15.4950 H   0  0  0  0  0  0  0  0  0  0  0  0
   12.5947    0.5906   16.1634 H   0  0  0  0  0  0  0  0  0  0  0  0
   10.8529    0.9605   16.4001 H   0  0  0  0  0  0  0  0  0  0  0  0
   12.2082    0.1559   13.7510 H   0  0  0  0  0  0  0  0  0  0  0  0
   11.5871    1.7871   14.1754 H   0  0  0  0  0  0  0  0  0  0  0  0
    9.9254   -0.5783   14.2409 H   0  0  0  0  0  0  0  0  0  0  0  0
   10.8070   -0.6506   12.0753 H   0  0  0  0  0  0  0  0  0  0  0  0
   10.1787    1.0122   11.8163 H   0  0  0  0  0  0  0  0  0  0  0  0
    8.5319   -1.5106   12.4454 H   0  0  0  0  0  0  0  0  0  0  0  0
    8.5550   -0.5949   10.9001 H   0  0  0  0  0  0  0  0  0  0  0  0
    7.5191   -0.4431   14.4160 H   0  0  0  0  0  0  0  0  0  0  0  0
    6.7990    1.1907   14.2187 H   0  0  0  0  0  0  0  0  0  0  0  0
    9.0531    2.1736   13.8563 H   0  0  0  0  0  0  0  0  0  0  0  0
    9.0352    1.2619   15.4039 H   0  0  0  0  0  0  0  0  0  0  0  0
  2  1  1  0  0  0  0
  4  2  2  0  0  0  0
  4 41  1  0  0  0  0
  5  4  1  0  0  0  0
  5  6  1  0  0  0  0
  6 42  1  0  0  0  0
  7  6  1  0  0  0  0
  7 30  1  0  0  0  0
  8  7  2  0  0  0  0
  8  9  1  0  0  0  0
  9  5  2  0  0  0  0
  9 10  1  0  0  0  0
 10 11  2  0  0  0  0
 10 43  1  0  0  0  0
 11  2  1  0  0  0  0
 11 44  1  0  0  0  0
 12  8  1  0  0  0  0
 12 16  2  0  0  0  0
 13 12  1  0  0  0  0
 13 14  1  0  0  0  0
 14 15  2  0  0  0  0
 14 45  1  0  0  0  0
 15 16  1  0  0  0  0
 16 17  1  0  0  0  0
 17 18  2  0  0  0  0
 17 22  1  0  0  0  0
 18 19  1  0  0  0  0
 18 46  1  0  0  0  0
 19 20  2  0  0  0  0
 19 47  1  0  0  0  0
 20 48  1  0  0  0  0
 21 20  1  0  0  0  0
 21 49  1  0  0  0  0
 22 21  2  0  0  0  0
 22 50  1  0  0  0  0
 23 13  1  0  0  0  0
 23 51  1  0  0  0  0
 23 52  1  0  0  0  0
 24 23  1  0  0  0  0
 24 29  1  0  0  0  0
 25 24  2  0  0  0  0
 25 53  1  0  0  0  0
 26 25  1  0  0  0  0
 26 27  2  0  0  0  0
 26 54  1  0  0  0  0
 27  3  1  0  0  0  0
 27 28  1  0  0  0  0
 28 29  2  0  0  0  0
 28 55  1  0  0  0  0
 29 56  1  0  0  0  0
 30 31  2  0  0  0  0
 30 32  1  0  0  0  0
 32 33  1  0  0  0  0
 32 57  1  0  0  0  0
 33 34  1  0  0  0  0
 33 58  1  0  0  0  0
 33 59  1  0  0  0  0
 34 35  1  0  0  0  0
 34 60  1  0  0  0  0
 34 61  1  0  0  0  0
 35 36  1  0  0  0  0
 35 40  1  0  0  0  0
 35 62  1  0  0  0  0
 36 37  1  0  0  0  0
 36 63  1  0  0  0  0
 36 64  1  0  0  0  0
 37 38  1  0  0  0  0
 37 65  1  0  0  0  0
 37 66  1  0  0  0  0
 38 39  1  0  0  0  0
 39 40  1  0  0  0  0
 39 67  1  0  0  0  0
 39 68  1  0  0  0  0
 40 69  1  0  0  0  0
 40 70  1  0  0  0  0
M  CHG  1  35   1
M  END
