4dlj_ligand
 OpenBabel08222323353D

 46 49  0  0  0  0  0  0  0  0999 V2000
   23.8750  -16.6430  -11.0000 N   0  0  0  0  0  0  0  0  0  0  0  0
   23.8420  -17.3970   -9.8840 C   0  0  0  0  0  0  0  0  0  0  0  0
   24.2590  -16.9060   -8.7020 N   0  0  0  0  0  0  0  0  0  0  0  0
   24.7330  -15.6440   -8.6280 C   0  0  0  0  0  0  0  0  0  0  0  0
   24.7970  -14.8650   -9.7920 C   0  0  0  0  0  0  0  0  0  0  0  0
   24.3690  -15.3920  -11.0050 C   0  0  0  0  0  0  0  0  0  0  0  0
   26.1130  -13.2400   -6.2330 N   0  0  0  0  0  0  0  0  0  0  0  0
   26.6110  -17.4210  -17.4640 C   0  0  0  0  0  0  0  0  0  0  0  0
   22.0940  -21.2090  -10.0330 C   0  0  0  0  0  0  0  0  0  0  0  0
   25.2160  -17.4690  -17.4860 C   0  0  0  0  0  0  0  0  0  0  0  0
   27.2430  -16.9350  -16.3100 C   0  0  0  0  0  0  0  0  0  0  0  0
   22.5340  -20.6980   -8.8190 C   0  0  0  0  0  0  0  0  0  0  0  0
   22.2620  -20.4520  -11.1800 C   0  0  0  0  0  0  0  0  0  0  0  0
   24.4900  -17.0320  -16.3550 C   0  0  0  0  0  0  0  0  0  0  0  0
   26.5140  -16.5030  -15.1880 C   0  0  0  0  0  0  0  0  0  0  0  0
   23.1210  -19.4240   -8.7730 C   0  0  0  0  0  0  0  0  0  0  0  0
   22.8610  -19.1860  -11.1490 C   0  0  0  0  0  0  0  0  0  0  0  0
   25.7420  -13.0290   -8.5430 C   0  0  0  0  0  0  0  0  0  0  0  0
   25.2890  -13.5540   -9.7470 C   0  0  0  0  0  0  0  0  0  0  0  0
   25.1860  -15.1140   -7.4160 C   0  0  0  0  0  0  0  0  0  0  0  0
   24.9550  -14.8920  -13.4060 C   0  0  0  0  0  0  0  0  0  0  0  0
   24.3150  -16.1110  -14.0150 C   0  0  0  0  0  0  0  0  0  0  0  0
   24.3730  -14.5990  -12.1070 N   0  0  0  0  0  0  0  0  0  0  0  0
   25.6810  -13.8000   -7.3730 C   0  0  0  0  0  0  0  0  0  0  0  0
   25.1290  -16.5520  -15.2070 C   0  0  0  0  0  0  0  0  0  0  0  0
   23.3020  -18.6740   -9.9410 C   0  0  0  0  0  0  0  0  0  0  0  0
   26.4700  -12.2738   -6.2368 H   0  0  0  0  0  0  0  0  0  0  0  0
   26.0877  -13.7762   -5.3539 H   0  0  0  0  0  0  0  0  0  0  0  0
   27.1915  -17.7512  -18.3178 H   0  0  0  0  0  0  0  0  0  0  0  0
   21.6262  -22.1856  -10.0818 H   0  0  0  0  0  0  0  0  0  0  0  0
   24.6948  -17.8378  -18.3620 H   0  0  0  0  0  0  0  0  0  0  0  0
   28.3258  -16.8911  -16.2823 H   0  0  0  0  0  0  0  0  0  0  0  0
   22.4246  -21.2803   -7.9113 H   0  0  0  0  0  0  0  0  0  0  0  0
   21.9205  -20.8501  -12.1286 H   0  0  0  0  0  0  0  0  0  0  0  0
   23.4069  -17.0699  -16.3778 H   0  0  0  0  0  0  0  0  0  0  0  0
   27.0333  -16.1330  -14.3114 H   0  0  0  0  0  0  0  0  0  0  0  0
   23.4384  -19.0154   -7.8204 H   0  0  0  0  0  0  0  0  0  0  0  0
   22.9779  -18.6132  -12.0618 H   0  0  0  0  0  0  0  0  0  0  0  0
   26.1430  -12.0225   -8.5079 H   0  0  0  0  0  0  0  0  0  0  0  0
   25.3161  -12.9517  -10.6479 H   0  0  0  0  0  0  0  0  0  0  0  0
   25.1554  -15.7142   -6.5138 H   0  0  0  0  0  0  0  0  0  0  0  0
   24.7996  -14.0315  -14.0733 H   0  0  0  0  0  0  0  0  0  0  0  0
   26.0334  -15.0727  -13.2857 H   0  0  0  0  0  0  0  0  0  0  0  0
   23.2918  -15.8679  -14.3372 H   0  0  0  0  0  0  0  0  0  0  0  0
   24.2826  -16.9207  -13.2711 H   0  0  0  0  0  0  0  0  0  0  0  0
   23.9100  -13.6839  -12.0113 H   0  0  0  0  0  0  0  0  0  0  0  0
  1  2  2  0  0  0  0
  2  3  1  0  0  0  0
  2 26  1  0  0  0  0
  4  3  2  0  0  0  0
  4 20  1  0  0  0  0
  5  4  1  0  0  0  0
  5 19  1  0  0  0  0
  6  1  1  0  0  0  0
  6  5  2  0  0  0  0
  7 27  1  0  0  0  0
  7 28  1  0  0  0  0
  8 29  1  0  0  0  0
  9 30  1  0  0  0  0
 10  8  2  0  0  0  0
 10 31  1  0  0  0  0
 11  8  1  0  0  0  0
 11 32  1  0  0  0  0
 12  9  2  0  0  0  0
 12 33  1  0  0  0  0
 13  9  1  0  0  0  0
 13 34  1  0  0  0  0
 14 10  1  0  0  0  0
 14 35  1  0  0  0  0
 15 11  2  0  0  0  0
 15 36  1  0  0  0  0
 16 12  1  0  0  0  0
 16 37  1  0  0  0  0
 17 13  2  0  0  0  0
 17 38  1  0  0  0  0
 18 24  1  0  0  0  0
 18 39  1  0  0  0  0
 19 18  2  0  0  0  0
 19 40  1  0  0  0  0
 20 24  2  0  0  0  0
 20 41  1  0  0  0  0
 21 23  1  0  0  0  0
 21 42  1  0  0  0  0
 21 43  1  0  0  0  0
 22 21  1  0  0  0  0
 22 25  1  0  0  0  0
 22 44  1  0  0  0  0
 22 45  1  0  0  0  0
 23  6  1  0  0  0  0
 23 46  1  0  0  0  0
 24  7  1  0  0  0  0
 25 14  2  0  0  0  0
 25 15  1  0  0  0  0
 26 16  2  0  0  0  0
 26 17  1  0  0  0  0
M  END
