4dmn_ligand
 OpenBabel08222323353D

 39 41  0  0  1  0  0  0  0  0999 V2000
  -39.6380   14.2750   29.4340 Cl  0  0  0  0  0  0  0  0  0  0  0  0
  -41.3710   14.5930   29.0570 C   0  0  0  0  0  0  0  0  0  0  0  0
  -42.3820   14.4270   30.0180 C   0  0  0  0  0  0  0  0  0  0  0  0
  -43.7500   14.6670   29.7240 C   0  0  0  0  0  0  0  0  0  0  0  0
  -41.7250   14.9870   27.7950 C   0  0  0  0  0  0  0  0  0  0  0  0
  -43.0840   15.2080   27.4840 C   0  0  0  0  0  0  0  0  0  0  0  0
  -44.1010   15.0620   28.4400 C   0  0  0  0  0  0  0  0  0  0  0  0
  -45.4660   15.3440   27.9010 C   0  0  0  0  0  0  0  0  0  0  0  0
  -46.2820   14.2740   27.5640 C   0  0  0  0  0  0  0  0  0  0  0  0
  -45.7850   12.8760   27.8690 C   0  0  2  0  0  0  0  0  0  0  0  0
  -45.8670   11.9890   26.7420 O   0  0  0  0  0  0  0  0  0  0  0  0
  -44.6120   11.8980   26.0760 C   0  0  0  0  0  0  0  0  0  0  0  0
  -46.3800   12.3160   29.1940 C   0  0  0  0  0  0  0  0  0  0  0  0
  -46.4860   13.0780   30.1830 O   0  5  0  0  0  0  0  0  0  0  0  0
  -46.7190   11.1060   29.3550 O   0  0  0  0  0  0  0  0  0  0  0  0
  -45.8680   16.6700   27.6450 C   0  0  0  0  0  0  0  0  0  0  0  0
  -45.0470   17.7560   27.9750 C   0  0  0  0  0  0  0  0  0  0  0  0
  -45.4350   19.1020   27.7510 C   0  0  0  0  0  0  0  0  0  0  0  0
  -44.2130   20.4840   28.2860 Br  0  0  0  0  0  0  0  0  0  0  0  0
  -46.6880   19.3590   27.1720 C   0  0  0  0  0  0  0  0  0  0  0  0
  -47.5370   18.2640   26.8420 C   0  0  0  0  0  0  0  0  0  0  0  0
  -47.1250   16.9190   27.0910 C   0  0  0  0  0  0  0  0  0  0  0  0
  -47.9150   15.8460   26.7760 N   0  0  0  0  0  0  0  0  0  0  0  0
  -47.5280   14.5510   27.0000 C   0  0  0  0  0  0  0  0  0  0  0  0
  -48.4980   13.4540   26.6240 C   0  0  0  0  0  0  0  0  0  0  0  0
  -42.1088   14.1052   31.0164 H   0  0  0  0  0  0  0  0  0  0  0  0
  -44.5079   14.5439   30.4892 H   0  0  0  0  0  0  0  0  0  0  0  0
  -40.9638   15.1289   27.0364 H   0  0  0  0  0  0  0  0  0  0  0  0
  -43.3506   15.4998   26.4746 H   0  0  0  0  0  0  0  0  0  0  0  0
  -44.7079   12.9850   28.0639 H   0  0  0  0  0  0  0  0  0  0  0  0
  -44.7006   11.2145   25.2187 H   0  0  0  0  0  0  0  0  0  0  0  0
  -43.8534   11.5141   26.7740 H   0  0  0  0  0  0  0  0  0  0  0  0
  -44.3123   12.8949   25.7207 H   0  0  0  0  0  0  0  0  0  0  0  0
  -44.0776   17.5602   28.4188 H   0  0  0  0  0  0  0  0  0  0  0  0
  -47.0051   20.3774   26.9787 H   0  0  0  0  0  0  0  0  0  0  0  0
  -48.5070   18.4534   26.3967 H   0  0  0  0  0  0  0  0  0  0  0  0
  -49.4095   13.9002   26.1997 H   0  0  0  0  0  0  0  0  0  0  0  0
  -48.7579   12.8713   27.5200 H   0  0  0  0  0  0  0  0  0  0  0  0
  -48.0324   12.7924   25.8786 H   0  0  0  0  0  0  0  0  0  0  0  0
  1  2  1  0  0  0  0
  2  3  2  0  0  0  0
  2  5  1  0  0  0  0
  3  4  1  0  0  0  0
  3 26  1  0  0  0  0
  4  7  2  0  0  0  0
  4 27  1  0  0  0  0
  5  6  2  0  0  0  0
  5 28  1  0  0  0  0
  6  7  1  0  0  0  0
  6 29  1  0  0  0  0
  7  8  1  0  0  0  0
  8  9  2  0  0  0  0
  8 16  1  0  0  0  0
  9 10  1  0  0  0  0
  9 24  1  0  0  0  0
 10 11  1  0  0  0  0
 10 13  1  0  0  0  0
 10 30  1  1  0  0  0
 11 12  1  0  0  0  0
 12 31  1  0  0  0  0
 12 32  1  0  0  0  0
 12 33  1  0  0  0  0
 13 14  1  0  0  0  0
 13 15  2  0  0  0  0
 16 17  2  0  0  0  0
 16 22  1  0  0  0  0
 17 18  1  0  0  0  0
 17 34  1  0  0  0  0
 18 19  1  0  0  0  0
 18 20  2  0  0  0  0
 20 21  1  0  0  0  0
 20 35  1  0  0  0  0
 21 22  2  0  0  0  0
 21 36  1  0  0  0  0
 22 23  1  0  0  0  0
 23 24  2  0  0  0  0
 24 25  1  0  0  0  0
 25 37  1  0  0  0  0
 25 38  1  0  0  0  0
 25 39  1  0  0  0  0
M  CHG  1  14  -1
M  END
