4dpt_ligand
 OpenBabel08222323353D

 28 27  0  0  1  0  0  0  0  0999 V2000
    4.1010   18.7850   21.5170 O   0  5  0  0  0  0  0  0  0  0  0  0
   12.1100   18.1940   22.2060 O   0  0  0  0  0  1  0  0  0  0  0  0
    8.7630   17.5150   21.1060 O   0  0  0  0  0  1  0  0  0  0  0  0
    3.9930   19.2690   23.6470 O   0  0  0  0  0  0  0  0  0  0  0  0
    4.4570   20.6900   19.7330 O   0  0  0  0  0  0  0  0  0  0  0  0
   12.9150   19.6540   20.4200 O   0  0  0  0  0  1  0  0  0  0  0  0
   11.7990   17.5660   19.8360 O   0  0  0  0  0  0  0  0  0  0  0  0
    9.6400   18.2250   18.9370 O   0  0  0  0  0  0  0  0  0  0  0  0
    4.7360   23.3690   19.3160 F   0  0  0  0  0  0  0  0  0  0  0  0
    4.2810   22.8180   20.4380 C   0  0  0  0  0  0  0  0  0  0  0  0
    7.1300   20.2010   21.0520 C   0  0  0  0  0  0  0  0  0  0  0  0
    6.3580   21.4970   20.8110 C   0  0  0  0  0  0  0  0  0  0  0  0
    4.2940   21.1120   22.1520 C   0  0  0  0  0  0  0  0  0  0  0  0
    7.9350   19.7080   20.0380 O   0  0  0  0  0  0  0  0  0  0  0  0
   10.4250   19.4130   20.8630 O   0  0  0  0  0  0  0  0  0  0  0  0
    4.1190   19.6480   22.4550 C   0  0  0  0  0  0  0  0  0  0  0  0
    4.8480   21.5000   20.7870 C   0  0  2  0  0  0  0  0  0  0  0  0
   11.8210   18.7090   20.8290 P   0  0  0  0  0  0  0  0  0  0  0  0
    9.1590   18.7130   20.2750 P   0  0  1  0  0  0  0  0  0  0  0  0
    4.7860   19.7996   19.8760 H   0  0  0  0  0  0  0  0  0  0  0  0
    3.2121   22.6627   20.2916 H   0  0  0  0  0  0  0  0  0  0  0  0
    4.5585   23.4947   21.2462 H   0  0  0  0  0  0  0  0  0  0  0  0
    6.3650   19.4392   21.2022 H   0  0  0  0  0  0  0  0  0  0  0  0
    7.8125   20.4259   21.8716 H   0  0  0  0  0  0  0  0  0  0  0  0
    6.6420   21.7935   19.8013 H   0  0  0  0  0  0  0  0  0  0  0  0
    6.6130   22.1230   21.6661 H   0  0  0  0  0  0  0  0  0  0  0  0
    5.0278   21.4705   22.8739 H   0  0  0  0  0  0  0  0  0  0  0  0
    3.2905   21.5361   22.1874 H   0  0  0  0  0  0  0  0  0  0  0  0
  5 20  1  0  0  0  0
 10  9  1  0  0  0  0
 10 21  1  0  0  0  0
 10 22  1  0  0  0  0
 11 12  1  0  0  0  0
 11 23  1  0  0  0  0
 11 24  1  0  0  0  0
 12 17  1  0  0  0  0
 12 25  1  0  0  0  0
 12 26  1  0  0  0  0
 13 16  1  0  0  0  0
 13 27  1  0  0  0  0
 13 28  1  0  0  0  0
 14 11  1  0  0  0  0
 15 18  1  0  0  0  0
 15 19  1  0  0  0  0
 16  1  1  0  0  0  0
 16  4  2  0  0  0  0
 17  5  1  6  0  0  0
 17 10  1  0  0  0  0
 17 13  1  0  0  0  0
 18  2  1  0  0  0  0
 18  6  1  0  0  0  0
 18  7  2  0  0  0  0
 19  3  1  1  0  0  0
 19  8  2  0  0  0  0
 19 14  1  0  0  0  0
M  CHG  1   1  -1
M  END
