4dpu_ligand
 OpenBabel08222323353D

 28 27  0  0  1  0  0  0  0  0999 V2000
   17.0420  -24.2340  -18.7000 O   0  5  0  0  0  0  0  0  0  0  0  0
   17.5580  -16.6470  -18.9670 O   0  0  0  0  0  1  0  0  0  0  0  0
   18.0470  -19.1080  -19.6760 O   0  0  0  0  0  1  0  0  0  0  0  0
   16.1790  -24.2440  -16.6830 O   0  0  0  0  0  0  0  0  0  0  0  0
   15.4250  -24.0090  -20.8040 O   0  0  0  0  0  0  0  0  0  0  0  0
   16.3260  -15.2800  -20.5980 O   0  0  0  0  0  1  0  0  0  0  0  0
   18.3500  -16.4970  -21.3020 O   0  0  0  0  0  0  0  0  0  0  0  0
   17.2160  -19.7850  -21.9050 O   0  0  0  0  0  0  0  0  0  0  0  0
   12.6390  -23.5170  -21.4900 F   0  0  0  0  0  0  0  0  0  0  0  0
   13.1720  -24.1890  -20.4720 C   0  0  0  0  0  0  0  0  0  0  0  0
   15.6510  -21.4220  -20.2150 C   0  0  0  0  0  0  0  0  0  0  0  0
   14.4180  -22.1840  -19.7770 C   0  0  0  0  0  0  0  0  0  0  0  0
   14.6390  -24.2970  -18.5220 C   0  0  0  0  0  0  0  0  0  0  0  0
   15.7330  -20.0890  -19.8790 O   0  0  0  0  0  0  0  0  0  0  0  0
   16.2620  -17.7600  -20.7820 O   0  0  0  0  0  0  0  0  0  0  0  0
   16.0260  -24.2560  -17.9340 C   0  0  0  0  0  0  0  0  0  0  0  0
   14.4360  -23.6790  -19.8970 C   0  0  2  0  0  0  0  0  0  0  0  0
   17.1260  -16.5380  -20.4100 P   0  0  0  0  0  0  0  0  0  0  0  0
   16.8280  -19.1840  -20.5650 P   0  0  1  0  0  0  0  0  0  0  0  0
   15.2345  -23.5942  -21.6485 H   0  0  0  0  0  0  0  0  0  0  0  0
   13.4093  -25.1767  -20.8672 H   0  0  0  0  0  0  0  0  0  0  0  0
   12.4398  -24.1273  -19.6669 H   0  0  0  0  0  0  0  0  0  0  0  0
   15.6379  -21.4478  -21.3046 H   0  0  0  0  0  0  0  0  0  0  0  0
   16.4868  -21.9028  -19.7066 H   0  0  0  0  0  0  0  0  0  0  0  0
   13.6202  -21.8498  -20.4403 H   0  0  0  0  0  0  0  0  0  0  0  0
   14.3151  -21.9803  -18.7112 H   0  0  0  0  0  0  0  0  0  0  0  0
   14.0173  -23.7119  -17.8443 H   0  0  0  0  0  0  0  0  0  0  0  0
   14.4030  -25.3546  -18.6396 H   0  0  0  0  0  0  0  0  0  0  0  0
  5 20  1  0  0  0  0
 10  9  1  0  0  0  0
 10 21  1  0  0  0  0
 10 22  1  0  0  0  0
 11 12  1  0  0  0  0
 11 23  1  0  0  0  0
 11 24  1  0  0  0  0
 12 17  1  0  0  0  0
 12 25  1  0  0  0  0
 12 26  1  0  0  0  0
 13 16  1  0  0  0  0
 13 27  1  0  0  0  0
 13 28  1  0  0  0  0
 14 11  1  0  0  0  0
 15 18  1  0  0  0  0
 15 19  1  0  0  0  0
 16  1  1  0  0  0  0
 16  4  2  0  0  0  0
 17  5  1  6  0  0  0
 17 10  1  0  0  0  0
 17 13  1  0  0  0  0
 18  2  1  0  0  0  0
 18  6  1  0  0  0  0
 18  7  2  0  0  0  0
 19  3  1  1  0  0  0
 19  8  2  0  0  0  0
 19 14  1  0  0  0  0
M  CHG  1   1  -1
M  END
