4drk_ligand
 OpenBabel08222323353D

 82 84  0  0  1  0  0  0  0  0999 V2000
   13.1750  -15.5400   29.8980 O   0  5  0  0  0  0  0  0  0  0  0  0
   13.3870  -15.8000   28.6980 C   0  0  0  0  0  0  0  0  0  0  0  0
   12.5270  -15.7170   27.7910 O   0  0  0  0  0  0  0  0  0  0  0  0
   14.7510  -16.2980   28.2770 C   0  0  0  0  0  0  0  0  0  0  0  0
   15.7300  -16.0680   29.2940 O   0  0  0  0  0  0  0  0  0  0  0  0
   16.3280  -14.8520   29.4810 C   0  0  0  0  0  0  0  0  0  0  0  0
   17.3680  -14.8270   30.4010 C   0  0  0  0  0  0  0  0  0  0  0  0
   15.9450  -13.6840   28.8130 C   0  0  0  0  0  0  0  0  0  0  0  0
   16.6120  -12.4740   29.0720 C   0  0  0  0  0  0  0  0  0  0  0  0
   17.6600  -12.4320   29.9890 C   0  0  0  0  0  0  0  0  0  0  0  0
   18.0310  -13.6070   30.6640 C   0  0  0  0  0  0  0  0  0  0  0  0
   19.2030  -13.5170   31.5950 C   0  0  1  0  0  0  0  0  0  0  0  0
   18.9360  -14.0850   32.9900 C   0  0  0  0  0  0  0  0  0  0  0  0
   18.1850  -13.0880   33.8540 C   0  0  0  0  0  0  0  0  0  0  0  0
   19.0630  -11.9900   34.4320 C   0  0  0  0  0  0  0  0  0  0  0  0
   18.9910  -10.6710   33.9580 C   0  0  0  0  0  0  0  0  0  0  0  0
   19.7790   -9.6430   34.4940 C   0  0  0  0  0  0  0  0  0  0  0  0
   20.6900   -9.9300   35.5250 C   0  0  0  0  0  0  0  0  0  0  0  0
   21.5250   -9.0290   36.1510 O   0  0  0  0  0  0  0  0  0  0  0  0
   21.3070   -7.6310   35.8790 C   0  0  0  0  0  0  0  0  0  0  0  0
   20.7460  -11.2490   35.9910 C   0  0  0  0  0  0  0  0  0  0  0  0
   21.6430  -11.4740   36.9990 O   0  0  0  0  0  0  0  0  0  0  0  0
   21.6390  -12.6820   37.8000 C   0  0  0  0  0  0  0  0  0  0  0  0
   19.9730  -12.2800   35.4640 C   0  0  0  0  0  0  0  0  0  0  0  0
   20.1400  -14.4060   30.9500 O   0  0  0  0  0  0  0  0  0  0  0  0
   21.4900  -14.0060   30.8510 C   0  0  0  0  0  0  0  0  0  0  0  0
   21.8440  -12.9750   31.3410 O   0  0  0  0  0  0  0  0  0  0  0  0
   22.4420  -15.0000   30.2300 C   0  0  1  0  0  0  0  0  0  0  0  0
   21.7860  -16.1830   29.6390 N   0  0  0  0  0  0  0  0  0  0  0  0
   20.9790  -15.9470   28.3900 C   0  0  0  0  0  0  0  0  0  0  0  0
   21.7980  -15.1420   27.3380 C   0  0  0  0  0  0  0  0  0  0  0  0
   22.4240  -13.8820   27.9400 C   0  0  0  0  0  0  0  0  0  0  0  0
   23.2710  -14.2870   29.1560 C   0  0  0  0  0  0  0  0  0  0  0  0
   21.9280  -17.3840   30.2460 C   0  0  0  0  0  0  0  0  0  0  0  0
   22.6300  -17.5450   31.2660 O   0  0  0  0  0  0  0  0  0  0  0  0
   21.2740  -18.6190   29.6960 C   0  0  0  0  0  0  0  0  0  0  0  0
   21.8130  -19.2080   28.7600 O   0  0  0  0  0  0  0  0  0  0  0  0
   20.0580  -19.2200   30.3990 C   0  0  0  0  0  0  0  0  0  0  0  0
   19.2290  -20.0610   29.4280 C   0  0  0  0  0  0  0  0  0  0  0  0
   19.2620  -18.1170   31.1320 C   0  0  0  0  0  0  0  0  0  0  0  0
   20.5690  -20.1790   31.4870 C   0  0  0  0  0  0  0  0  0  0  0  0
   19.5130  -20.7000   32.4280 C   0  0  0  0  0  0  0  0  0  0  0  0
   15.0568  -15.7713   27.3610 H   0  0  0  0  0  0  0  0  0  0  0  0
   14.6910  -17.3779   28.0764 H   0  0  0  0  0  0  0  0  0  0  0  0
   17.6683  -15.7344   30.9124 H   0  0  0  0  0  0  0  0  0  0  0  0
   15.1333  -13.7121   28.0951 H   0  0  0  0  0  0  0  0  0  0  0  0
   16.3097  -11.5698   28.5561 H   0  0  0  0  0  0  0  0  0  0  0  0
   18.1838  -11.5023   30.1797 H   0  0  0  0  0  0  0  0  0  0  0  0
   19.5761  -12.4849   31.6701 H   0  0  0  0  0  0  0  0  0  0  0  0
   19.8964  -14.3239   33.4701 H   0  0  0  0  0  0  0  0  0  0  0  0
   18.3354  -15.0017   32.8953 H   0  0  0  0  0  0  0  0  0  0  0  0
   17.7192  -13.6339   34.6877 H   0  0  0  0  0  0  0  0  0  0  0  0
   17.4022  -12.6184   33.2403 H   0  0  0  0  0  0  0  0  0  0  0  0
   18.3042  -10.4398   33.1518 H   0  0  0  0  0  0  0  0  0  0  0  0
   19.6862   -8.6316   34.1151 H   0  0  0  0  0  0  0  0  0  0  0  0
   22.0381   -7.0301   36.4396 H   0  0  0  0  0  0  0  0  0  0  0  0
   20.2889   -7.3517   36.1880 H   0  0  0  0  0  0  0  0  0  0  0  0
   21.4276   -7.4439   34.8018 H   0  0  0  0  0  0  0  0  0  0  0  0
   22.4494  -12.6325   38.5422 H   0  0  0  0  0  0  0  0  0  0  0  0
   21.7918  -13.5547   37.1481 H   0  0  0  0  0  0  0  0  0  0  0  0
   20.6729  -12.7755   38.3176 H   0  0  0  0  0  0  0  0  0  0  0  0
   20.0711  -13.2907   35.8434 H   0  0  0  0  0  0  0  0  0  0  0  0
   23.1191  -15.3549   31.0209 H   0  0  0  0  0  0  0  0  0  0  0  0
   20.0724  -15.3807   28.6495 H   0  0  0  0  0  0  0  0  0  0  0  0
   20.6940  -16.9174   27.9575 H   0  0  0  0  0  0  0  0  0  0  0  0
   21.1285  -14.8479   26.5162 H   0  0  0  0  0  0  0  0  0  0  0  0
   22.6002  -15.7842   26.9455 H   0  0  0  0  0  0  0  0  0  0  0  0
   21.6305  -13.1888   28.2558 H   0  0  0  0  0  0  0  0  0  0  0  0
   23.0627  -13.3915   27.1907 H   0  0  0  0  0  0  0  0  0  0  0  0
   24.0715  -14.9626   28.8204 H   0  0  0  0  0  0  0  0  0  0  0  0
   23.7153  -13.3816   29.5950 H   0  0  0  0  0  0  0  0  0  0  0  0
   18.3610  -20.4821   29.9565 H   0  0  0  0  0  0  0  0  0  0  0  0
   19.8481  -20.8786   29.0302 H   0  0  0  0  0  0  0  0  0  0  0  0
   18.8814  -19.4274   28.5987 H   0  0  0  0  0  0  0  0  0  0  0  0
   19.9345  -17.5657   31.8056 H   0  0  0  0  0  0  0  0  0  0  0  0
   18.4525  -18.5768   31.7179 H   0  0  0  0  0  0  0  0  0  0  0  0
   18.8324  -17.4232   30.3944 H   0  0  0  0  0  0  0  0  0  0  0  0
   21.3240  -19.6461   32.0837 H   0  0  0  0  0  0  0  0  0  0  0  0
   21.0368  -21.0411   30.9890 H   0  0  0  0  0  0  0  0  0  0  0  0
   19.9774  -21.3730   33.1638 H   0  0  0  0  0  0  0  0  0  0  0  0
   18.7519  -21.2511   31.8562 H   0  0  0  0  0  0  0  0  0  0  0  0
   19.0391  -19.8562   32.9508 H   0  0  0  0  0  0  0  0  0  0  0  0
  1  2  1  0  0  0  0
  2  3  2  0  0  0  0
  2  4  1  0  0  0  0
  4  5  1  0  0  0  0
  4 43  1  0  0  0  0
  4 44  1  0  0  0  0
  5  6  1  0  0  0  0
  6  7  2  0  0  0  0
  6  8  1  0  0  0  0
  7 11  1  0  0  0  0
  7 45  1  0  0  0  0
  8  9  2  0  0  0  0
  8 46  1  0  0  0  0
  9 10  1  0  0  0  0
  9 47  1  0  0  0  0
 10 11  2  0  0  0  0
 10 48  1  0  0  0  0
 11 12  1  0  0  0  0
 12 13  1  0  0  0  0
 12 25  1  0  0  0  0
 12 49  1  1  0  0  0
 13 14  1  0  0  0  0
 13 50  1  0  0  0  0
 13 51  1  0  0  0  0
 14 15  1  0  0  0  0
 14 52  1  0  0  0  0
 14 53  1  0  0  0  0
 15 16  2  0  0  0  0
 15 24  1  0  0  0  0
 16 17  1  0  0  0  0
 16 54  1  0  0  0  0
 17 18  2  0  0  0  0
 17 55  1  0  0  0  0
 18 19  1  0  0  0  0
 18 21  1  0  0  0  0
 19 20  1  0  0  0  0
 20 56  1  0  0  0  0
 20 57  1  0  0  0  0
 20 58  1  0  0  0  0
 21 22  1  0  0  0  0
 21 24  2  0  0  0  0
 22 23  1  0  0  0  0
 23 59  1  0  0  0  0
 23 60  1  0  0  0  0
 23 61  1  0  0  0  0
 24 62  1  0  0  0  0
 25 26  1  0  0  0  0
 26 27  2  0  0  0  0
 26 28  1  0  0  0  0
 28 29  1  0  0  0  0
 28 33  1  0  0  0  0
 28 63  1  1  0  0  0
 29 30  1  0  0  0  0
 29 34  1  0  0  0  0
 30 31  1  0  0  0  0
 30 64  1  0  0  0  0
 30 65  1  0  0  0  0
 31 32  1  0  0  0  0
 31 66  1  0  0  0  0
 31 67  1  0  0  0  0
 32 33  1  0  0  0  0
 32 68  1  0  0  0  0
 32 69  1  0  0  0  0
 33 70  1  0  0  0  0
 33 71  1  0  0  0  0
 34 35  2  0  0  0  0
 34 36  1  0  0  0  0
 36 37  2  0  0  0  0
 36 38  1  0  0  0  0
 38 39  1  0  0  0  0
 38 40  1  0  0  0  0
 38 41  1  0  0  0  0
 39 72  1  0  0  0  0
 39 73  1  0  0  0  0
 39 74  1  0  0  0  0
 40 75  1  0  0  0  0
 40 76  1  0  0  0  0
 40 77  1  0  0  0  0
 41 42  1  0  0  0  0
 41 78  1  0  0  0  0
 41 79  1  0  0  0  0
 42 80  1  0  0  0  0
 42 81  1  0  0  0  0
 42 82  1  0  0  0  0
M  CHG  1   1  -1
M  END
