4drp_ligand
 OpenBabel08222323353D

 90 93  0  0  1  0  0  0  0  0999 V2000
    6.3080    4.3020   15.4620 C   0  0  0  0  0  0  0  0  0  0  0  0
    5.3530    4.1490   14.2620 C   0  0  0  0  0  0  0  0  0  0  0  0
    5.9440    3.2750   13.1380 C   0  0  1  0  0  0  0  0  0  0  0  0
    6.1540    1.8100   13.6210 C   0  0  0  0  0  0  0  0  0  0  0  0
    6.6890    0.9120   12.4910 C   0  0  0  0  0  0  0  0  0  0  0  0
    5.7800    0.9530   11.2550 C   0  0  0  0  0  0  0  0  0  0  0  0
    5.5870    2.3990   10.7570 C   0  0  0  0  0  0  0  0  0  0  0  0
    5.0600    3.3290   11.8740 C   0  0  1  0  0  0  0  0  0  0  0  0
    3.7330    2.8820   12.1960 O   0  0  0  0  0  0  0  0  0  0  0  0
    5.0320    4.8060   11.3710 C   0  0  0  0  0  0  0  0  0  0  0  0
    6.0720    5.4170   11.1010 O   0  0  0  0  0  0  0  0  0  0  0  0
    3.6820    5.5450   11.3210 C   0  0  0  0  0  0  0  0  0  0  0  0
    3.3220    6.1830   12.3170 O   0  0  0  0  0  0  0  0  0  0  0  0
    2.9060    5.4950   10.2220 N   0  0  0  0  0  0  0  0  0  0  0  0
    3.3910    4.7100    9.0390 C   0  0  0  0  0  0  0  0  0  0  0  0
    3.2580    5.5740    7.7900 C   0  0  0  0  0  0  0  0  0  0  0  0
    1.8190    6.1090    7.6720 C   0  0  0  0  0  0  0  0  0  0  0  0
    1.4280    6.9690    8.8860 C   0  0  0  0  0  0  0  0  0  0  0  0
    1.5690    6.1600   10.1880 C   0  0  1  0  0  0  0  0  0  0  0  0
    0.4370    5.1090   10.2630 C   0  0  0  0  0  0  0  0  0  0  0  0
   -0.7510    5.4370   10.1040 O   0  0  0  0  0  0  0  0  0  0  0  0
    0.7870    3.8100   10.5320 O   0  0  0  0  0  0  0  0  0  0  0  0
   -0.2630    2.7900   10.5760 C   0  0  2  0  0  0  0  0  0  0  0  0
   -0.4830    2.5070   12.0410 C   0  0  0  0  0  0  0  0  0  0  0  0
   -1.7880    1.7490   12.2510 C   0  0  0  0  0  0  0  0  0  0  0  0
   -3.0640    2.6270   12.2000 C   0  0  0  0  0  0  0  0  0  0  0  0
   -3.3830    3.5220   13.2340 C   0  0  0  0  0  0  0  0  0  0  0  0
   -3.9250    2.4910   11.1140 C   0  0  0  0  0  0  0  0  0  0  0  0
   -5.1070    3.2530   11.0490 C   0  0  0  0  0  0  0  0  0  0  0  0
   -5.4050    4.1600   12.0930 C   0  0  0  0  0  0  0  0  0  0  0  0
   -6.5350    4.9260   12.0650 O   0  0  0  0  0  0  0  0  0  0  0  0
   -7.6430    4.4320   11.2500 C   0  0  0  0  0  0  0  0  0  0  0  0
   -4.5460    4.3050   13.1950 C   0  0  0  0  0  0  0  0  0  0  0  0
   -4.9100    5.2160   14.1820 O   0  0  0  0  0  0  0  0  0  0  0  0
   -4.1870    5.2120   15.4400 C   0  0  0  0  0  0  0  0  0  0  0  0
    0.2790    1.5810    9.7950 C   0  0  0  0  0  0  0  0  0  0  0  0
    1.4600    0.9720   10.2170 C   0  0  0  0  0  0  0  0  0  0  0  0
   -0.4060    1.0900    8.6810 C   0  0  0  0  0  0  0  0  0  0  0  0
    0.1190    0.0050    7.9790 C   0  0  0  0  0  0  0  0  0  0  0  0
    1.3080   -0.5920    8.4000 C   0  0  0  0  0  0  0  0  0  0  0  0
    1.9840   -0.1160    9.5260 C   0  0  0  0  0  0  0  0  0  0  0  0
    3.1440   -0.6580   10.0010 O   0  0  0  0  0  0  0  0  0  0  0  0
    3.6990   -1.7450    9.2130 C   0  0  0  0  0  0  0  0  0  0  0  0
    3.0620   -3.1170    9.4090 C   0  0  0  0  0  0  0  0  0  0  0  0
    3.4590   -4.0270    8.6540 O   0  5  0  0  0  0  0  0  0  0  0  0
    2.1650   -3.2610   10.2780 O   0  0  0  0  0  0  0  0  0  0  0  0
    5.8349    4.9328   16.2290 H   0  0  0  0  0  0  0  0  0  0  0  0
    7.2447    4.7719   15.1276 H   0  0  0  0  0  0  0  0  0  0  0  0
    6.5260    3.3107   15.8859 H   0  0  0  0  0  0  0  0  0  0  0  0
    5.1374    5.1477   13.8544 H   0  0  0  0  0  0  0  0  0  0  0  0
    4.4186    3.6865   14.6127 H   0  0  0  0  0  0  0  0  0  0  0  0
    6.9300    3.6858   12.8754 H   0  0  0  0  0  0  0  0  0  0  0  0
    5.1917    1.4081   13.9710 H   0  0  0  0  0  0  0  0  0  0  0  0
    6.8760    1.8077   14.4509 H   0  0  0  0  0  0  0  0  0  0  0  0
    6.7475   -0.1239   12.8563 H   0  0  0  0  0  0  0  0  0  0  0  0
    7.6937    1.2577   12.2062 H   0  0  0  0  0  0  0  0  0  0  0  0
    4.7992    0.5288   11.5159 H   0  0  0  0  0  0  0  0  0  0  0  0
    6.2367    0.3546   10.4529 H   0  0  0  0  0  0  0  0  0  0  0  0
    4.8650    2.3958    9.9271 H   0  0  0  0  0  0  0  0  0  0  0  0
    6.5537    2.7842   10.4005 H   0  0  0  0  0  0  0  0  0  0  0  0
    3.3728    3.4313   12.8823 H   0  0  0  0  0  0  0  0  0  0  0  0
    2.7844    3.7995    8.9253 H   0  0  0  0  0  0  0  0  0  0  0  0
    4.4451    4.4323    9.1862 H   0  0  0  0  0  0  0  0  0  0  0  0
    3.4963    4.9701    6.9020 H   0  0  0  0  0  0  0  0  0  0  0  0
    3.9573    6.4205    7.8562 H   0  0  0  0  0  0  0  0  0  0  0  0
    1.1269    5.2569    7.6016 H   0  0  0  0  0  0  0  0  0  0  0  0
    1.7403    6.7215    6.7617 H   0  0  0  0  0  0  0  0  0  0  0  0
    0.3841    7.2978    8.7755 H   0  0  0  0  0  0  0  0  0  0  0  0
    2.0865    7.8488    8.9335 H   0  0  0  0  0  0  0  0  0  0  0  0
    1.4851    6.8401   11.0485 H   0  0  0  0  0  0  0  0  0  0  0  0
   -1.1954    3.1478   10.1150 H   0  0  0  0  0  0  0  0  0  0  0  0
   -0.5255    3.4589   12.5906 H   0  0  0  0  0  0  0  0  0  0  0  0
    0.3523    1.9008   12.4215 H   0  0  0  0  0  0  0  0  0  0  0  0
   -1.7465    1.2624   13.2366 H   0  0  0  0  0  0  0  0  0  0  0  0
   -1.8686    0.9821   11.4665 H   0  0  0  0  0  0  0  0  0  0  0  0
   -2.7144    3.6098   14.0827 H   0  0  0  0  0  0  0  0  0  0  0  0
   -3.6846    1.7968   10.3169 H   0  0  0  0  0  0  0  0  0  0  0  0
   -5.7819    3.1458   10.2075 H   0  0  0  0  0  0  0  0  0  0  0  0
   -8.4863    5.1355   11.3125 H   0  0  0  0  0  0  0  0  0  0  0  0
   -7.9598    3.4461   11.6208 H   0  0  0  0  0  0  0  0  0  0  0  0
   -7.3169    4.3427   10.2033 H   0  0  0  0  0  0  0  0  0  0  0  0
   -4.5990    5.9878   16.1021 H   0  0  0  0  0  0  0  0  0  0  0  0
   -3.1229    5.4177   15.2520 H   0  0  0  0  0  0  0  0  0  0  0  0
   -4.2911    4.2276   15.9196 H   0  0  0  0  0  0  0  0  0  0  0  0
    1.9753    1.3501   11.0925 H   0  0  0  0  0  0  0  0  0  0  0  0
   -1.3365    1.5477    8.3652 H   0  0  0  0  0  0  0  0  0  0  0  0
   -0.3975   -0.3751    7.1050 H   0  0  0  0  0  0  0  0  0  0  0  0
    1.7110   -1.4333    7.8479 H   0  0  0  0  0  0  0  0  0  0  0  0
    4.7658   -1.8318    9.4666 H   0  0  0  0  0  0  0  0  0  0  0  0
    3.5951   -1.4761    8.1514 H   0  0  0  0  0  0  0  0  0  0  0  0
  1  2  1  0  0  0  0
  1 47  1  0  0  0  0
  1 48  1  0  0  0  0
  1 49  1  0  0  0  0
  2  3  1  0  0  0  0
  2 50  1  0  0  0  0
  2 51  1  0  0  0  0
  3  4  1  0  0  0  0
  3  8  1  0  0  0  0
  3 52  1  6  0  0  0
  4  5  1  0  0  0  0
  4 53  1  0  0  0  0
  4 54  1  0  0  0  0
  5  6  1  0  0  0  0
  5 55  1  0  0  0  0
  5 56  1  0  0  0  0
  6  7  1  0  0  0  0
  6 57  1  0  0  0  0
  6 58  1  0  0  0  0
  7  8  1  0  0  0  0
  7 59  1  0  0  0  0
  7 60  1  0  0  0  0
  8  9  1  1  0  0  0
  8 10  1  0  0  0  0
  9 61  1  0  0  0  0
 10 11  2  0  0  0  0
 10 12  1  0  0  0  0
 12 13  2  0  0  0  0
 12 14  1  0  0  0  0
 14 15  1  0  0  0  0
 14 19  1  0  0  0  0
 15 16  1  0  0  0  0
 15 62  1  0  0  0  0
 15 63  1  0  0  0  0
 16 17  1  0  0  0  0
 16 64  1  0  0  0  0
 16 65  1  0  0  0  0
 17 18  1  0  0  0  0
 17 66  1  0  0  0  0
 17 67  1  0  0  0  0
 18 19  1  0  0  0  0
 18 68  1  0  0  0  0
 18 69  1  0  0  0  0
 19 20  1  0  0  0  0
 19 70  1  1  0  0  0
 20 21  2  0  0  0  0
 20 22  1  0  0  0  0
 22 23  1  0  0  0  0
 23 24  1  0  0  0  0
 23 36  1  0  0  0  0
 23 71  1  6  0  0  0
 24 25  1  0  0  0  0
 24 72  1  0  0  0  0
 24 73  1  0  0  0  0
 25 26  1  0  0  0  0
 25 74  1  0  0  0  0
 25 75  1  0  0  0  0
 26 27  2  0  0  0  0
 26 28  1  0  0  0  0
 27 33  1  0  0  0  0
 27 76  1  0  0  0  0
 28 29  2  0  0  0  0
 28 77  1  0  0  0  0
 29 30  1  0  0  0  0
 29 78  1  0  0  0  0
 30 31  1  0  0  0  0
 30 33  2  0  0  0  0
 31 32  1  0  0  0  0
 32 79  1  0  0  0  0
 32 80  1  0  0  0  0
 32 81  1  0  0  0  0
 33 34  1  0  0  0  0
 34 35  1  0  0  0  0
 35 82  1  0  0  0  0
 35 83  1  0  0  0  0
 35 84  1  0  0  0  0
 36 37  2  0  0  0  0
 36 38  1  0  0  0  0
 37 41  1  0  0  0  0
 37 85  1  0  0  0  0
 38 39  2  0  0  0  0
 38 86  1  0  0  0  0
 39 40  1  0  0  0  0
 39 87  1  0  0  0  0
 40 41  2  0  0  0  0
 40 88  1  0  0  0  0
 41 42  1  0  0  0  0
 42 43  1  0  0  0  0
 43 44  1  0  0  0  0
 43 89  1  0  0  0  0
 43 90  1  0  0  0  0
 44 45  1  0  0  0  0
 44 46  2  0  0  0  0
M  CHG  1  45  -1
M  END
