4dtk_ligand
 OpenBabel08222323353D

 49 51  0  0  1  0  0  0  0  0999 V2000
   22.7970  -40.1530   -3.7150 C   0  0  0  0  0  0  0  0  0  0  0  0
   19.3330  -37.1640   -2.5370 N   0  0  0  0  0  0  0  0  0  0  0  0
   20.7330  -39.4530   -2.9090 O   0  0  0  0  0  0  0  0  0  0  0  0
   17.7840  -36.8070    2.6510 S   0  0  0  0  0  0  0  0  0  0  0  0
   21.4650  -40.6490   -3.2770 C   0  0  0  0  0  0  0  0  0  0  0  0
   16.3110  -37.3160   -4.7420 N   0  3  0  0  0  0  0  0  0  0  0  0
   17.0340  -33.9390    0.2010 O   0  0  0  0  0  0  0  0  0  0  0  0
   20.6960  -41.2920   -4.3840 C   0  0  0  0  0  0  0  0  0  0  0  0
   16.2780  -34.7590    2.2280 N   0  0  0  0  0  0  0  0  0  0  0  0
   15.8050  -35.8970    4.1670 O   0  0  0  0  0  0  0  0  0  0  0  0
   20.6300  -39.0260   -1.5980 C   0  0  0  0  0  0  0  0  0  0  0  0
   21.1810  -39.7010   -0.5130 C   0  0  0  0  0  0  0  0  0  0  0  0
   20.9850  -39.2170    0.7690 C   0  0  0  0  0  0  0  0  0  0  0  0
   20.2470  -38.0650    0.9710 C   0  0  0  0  0  0  0  0  0  0  0  0
   19.7010  -37.3590   -0.1090 C   0  0  0  0  0  0  0  0  0  0  0  0
   19.8990  -37.8450   -1.4110 C   0  0  0  0  0  0  0  0  0  0  0  0
   20.1400  -36.2080   -3.3070 C   0  0  0  0  0  0  0  0  0  0  0  0
   19.3510  -35.1490   -4.0470 C   0  0  0  0  0  0  0  0  0  0  0  0
   18.2330  -35.7860   -4.8610 C   0  0  0  0  0  0  0  0  0  0  0  0
   17.3690  -36.6510   -3.9580 C   0  0  2  0  0  0  0  0  0  0  0  0
   18.1700  -37.7150   -3.2430 C   0  0  0  0  0  0  0  0  0  0  0  0
   18.7610  -36.2570    0.1020 C   0  0  0  0  0  0  0  0  0  0  0  0
   18.0230  -35.9230    1.1730 C   0  0  0  0  0  0  0  0  0  0  0  0
   17.0940  -34.7720    1.1100 C   0  0  0  0  0  0  0  0  0  0  0  0
   16.4670  -35.7360    3.1610 C   0  0  0  0  0  0  0  0  0  0  0  0
   23.4248  -41.0048   -4.0155 H   0  0  0  0  0  0  0  0  0  0  0  0
   23.2798  -39.6167   -2.8848 H   0  0  0  0  0  0  0  0  0  0  0  0
   22.6717  -39.4707   -4.5687 H   0  0  0  0  0  0  0  0  0  0  0  0
   21.5689  -41.3442   -2.4309 H   0  0  0  0  0  0  0  0  0  0  0  0
   15.7651  -36.6211   -5.2269 H   0  0  0  0  0  0  0  0  0  0  0  0
   15.7133  -37.8407   -4.1227 H   0  0  0  0  0  0  0  0  0  0  0  0
   16.7316  -37.9406   -5.4121 H   0  0  0  0  0  0  0  0  0  0  0  0
   19.7239  -41.6378   -4.0025 H   0  0  0  0  0  0  0  0  0  0  0  0
   21.2630  -42.1501   -4.7741 H   0  0  0  0  0  0  0  0  0  0  0  0
   20.5346  -40.5618   -5.1907 H   0  0  0  0  0  0  0  0  0  0  0  0
   15.5748  -34.0581    2.3475 H   0  0  0  0  0  0  0  0  0  0  0  0
   21.7616  -40.6026   -0.6712 H   0  0  0  0  0  0  0  0  0  0  0  0
   21.4109  -39.7421    1.6164 H   0  0  0  0  0  0  0  0  0  0  0  0
   20.0886  -37.7027    1.9803 H   0  0  0  0  0  0  0  0  0  0  0  0
   20.7259  -36.7744   -4.0458 H   0  0  0  0  0  0  0  0  0  0  0  0
   20.8222  -35.6993   -2.6100 H   0  0  0  0  0  0  0  0  0  0  0  0
   20.0247  -34.6027   -4.7235 H   0  0  0  0  0  0  0  0  0  0  0  0
   18.9148  -34.4486   -3.3195 H   0  0  0  0  0  0  0  0  0  0  0  0
   18.6690  -36.4091   -5.6557 H   0  0  0  0  0  0  0  0  0  0  0  0
   17.6139  -34.9965   -5.3121 H   0  0  0  0  0  0  0  0  0  0  0  0
   16.9006  -36.0000   -3.2052 H   0  0  0  0  0  0  0  0  0  0  0  0
   17.5181  -38.2155   -2.5119 H   0  0  0  0  0  0  0  0  0  0  0  0
   18.5218  -38.4486   -3.9833 H   0  0  0  0  0  0  0  0  0  0  0  0
   18.6396  -35.5959   -0.7548 H   0  0  0  0  0  0  0  0  0  0  0  0
  1 26  1  0  0  0  0
  1 27  1  0  0  0  0
  1 28  1  0  0  0  0
  2 17  1  0  0  0  0
  2 21  1  0  0  0  0
  3  5  1  0  0  0  0
  4 25  1  0  0  0  0
  5  1  1  0  0  0  0
  5  8  1  0  0  0  0
  5 29  1  0  0  0  0
  6 30  1  0  0  0  0
  6 31  1  0  0  0  0
  6 32  1  0  0  0  0
  8 33  1  0  0  0  0
  8 34  1  0  0  0  0
  8 35  1  0  0  0  0
  9 24  1  0  0  0  0
  9 36  1  0  0  0  0
 11  3  1  0  0  0  0
 11 12  2  0  0  0  0
 12 37  1  0  0  0  0
 13 12  1  0  0  0  0
 13 38  1  0  0  0  0
 14 13  2  0  0  0  0
 14 39  1  0  0  0  0
 15 14  1  0  0  0  0
 15 16  2  0  0  0  0
 16  2  1  0  0  0  0
 16 11  1  0  0  0  0
 17 18  1  0  0  0  0
 17 40  1  0  0  0  0
 17 41  1  0  0  0  0
 18 19  1  0  0  0  0
 18 42  1  0  0  0  0
 18 43  1  0  0  0  0
 19 44  1  0  0  0  0
 19 45  1  0  0  0  0
 20  6  1  0  0  0  0
 20 19  1  0  0  0  0
 20 46  1  1  0  0  0
 21 20  1  0  0  0  0
 21 47  1  0  0  0  0
 21 48  1  0  0  0  0
 22 15  1  0  0  0  0
 22 23  2  0  0  0  0
 22 49  1  0  0  0  0
 23  4  1  0  0  0  0
 23 24  1  0  0  0  0
 24  7  2  0  0  0  0
 25  9  1  0  0  0  0
 25 10  2  0  0  0  0
M  CHG  1   6   1
M  END
