4dtt_ligand
 OpenBabel08222323353D

 49 50  0  0  1  0  0  0  0  0999 V2000
   85.5110  -67.0810    5.5240 O   0  0  0  0  0  0  0  0  0  0  0  0
   84.3500  -67.4840    5.5240 C   0  0  0  0  0  0  0  0  0  0  0  0
   83.3140  -66.5280    5.9380 O   0  0  0  0  0  0  0  0  0  0  0  0
   83.2530  -65.2350    5.3210 C   0  0  0  0  0  0  0  0  0  0  0  0
   84.0040  -68.8760    4.9850 C   0  0  2  0  0  0  0  0  0  0  0  0
   83.8320  -70.1870    5.8310 C   0  0  0  0  0  0  0  0  0  0  0  0
   83.8860  -70.2770    7.3630 C   0  0  0  0  0  0  0  0  0  0  0  0
   83.3690  -71.3630    8.0870 C   0  0  0  0  0  0  0  0  0  0  0  0
   83.5740  -71.2140    9.4250 N   0  0  0  0  0  0  0  0  0  0  0  0
   84.2780  -69.9530    9.6210 C   0  0  0  0  0  0  0  0  0  0  0  0
   84.4450  -69.4140    8.2670 N   0  0  0  0  0  0  0  0  0  0  0  0
   84.8690  -69.1520    3.8020 N   0  0  0  0  0  0  0  0  0  0  0  0
   86.1660  -69.4890    3.5640 C   0  0  0  0  0  0  0  0  0  0  0  0
   87.0380  -69.6700    4.3960 O   0  0  0  0  0  0  0  0  0  0  0  0
   86.5200  -69.5970    2.0800 C   0  0  0  0  0  0  0  0  0  0  0  0
   86.9760  -70.8910    1.5200 N   0  3  1  0  0  0  0  0  0  0  0  0
   85.8850  -71.4960    0.6760 C   0  0  0  0  0  0  0  0  0  0  0  0
   84.5700  -72.0690    1.2660 C   0  0  0  0  0  0  0  0  0  0  0  0
   83.6350  -72.3020    0.4810 O   0  5  0  0  0  0  0  0  0  0  0  0
   84.3800  -72.3270    2.4760 O   0  0  0  0  0  0  0  0  0  0  0  0
   88.1100  -70.4570    0.6490 C   0  0  0  0  0  0  0  0  0  0  0  0
   89.3540  -71.3280    0.4760 C   0  0  0  0  0  0  0  0  0  0  0  0
   89.9020  -71.4540   -0.8190 C   0  0  0  0  0  0  0  0  0  0  0  0
   91.0980  -72.2650   -1.1200 C   0  0  0  0  0  0  0  0  0  0  0  0
   91.6680  -72.9150    0.0730 C   0  0  0  0  0  0  0  0  0  0  0  0
   91.1090  -72.7620    1.3550 C   0  0  0  0  0  0  0  0  0  0  0  0
   89.9630  -71.9760    1.5620 C   0  0  0  0  0  0  0  0  0  0  0  0
   82.4207  -64.6609    5.7542 H   0  0  0  0  0  0  0  0  0  0  0  0
   83.0935  -65.3522    4.2390 H   0  0  0  0  0  0  0  0  0  0  0  0
   84.1979  -64.7000    5.4966 H   0  0  0  0  0  0  0  0  0  0  0  0
   82.9908  -68.7266    4.5836 H   0  0  0  0  0  0  0  0  0  0  0  0
   84.6174  -70.8687    5.4726 H   0  0  0  0  0  0  0  0  0  0  0  0
   82.8454  -70.5851    5.5517 H   0  0  0  0  0  0  0  0  0  0  0  0
   82.8670  -72.2174    7.6353 H   0  0  0  0  0  0  0  0  0  0  0  0
   83.2847  -71.8717   10.1630 H   0  0  0  0  0  0  0  0  0  0  0  0
   84.6060  -69.5108   10.5606 H   0  0  0  0  0  0  0  0  0  0  0  0
   84.3545  -69.0657    2.9488 H   0  0  0  0  0  0  0  0  0  0  0  0
   87.3224  -68.8687    1.8910 H   0  0  0  0  0  0  0  0  0  0  0  0
   85.6208  -69.3064    1.5169 H   0  0  0  0  0  0  0  0  0  0  0  0
   87.2696  -71.5359    2.2370 H   0  0  0  0  0  0  0  0  0  0  0  0
   86.3543  -72.3244    0.1251 H   0  0  0  0  0  0  0  0  0  0  0  0
   85.5808  -70.7108   -0.0317 H   0  0  0  0  0  0  0  0  0  0  0  0
   88.4578  -69.4925    1.0475 H   0  0  0  0  0  0  0  0  0  0  0  0
   87.6911  -70.3085   -0.3572 H   0  0  0  0  0  0  0  0  0  0  0  0
   89.4194  -70.9278   -1.6346 H   0  0  0  0  0  0  0  0  0  0  0  0
   91.5138  -72.3713   -2.1154 H   0  0  0  0  0  0  0  0  0  0  0  0
   92.5506  -73.5339   -0.0412 H   0  0  0  0  0  0  0  0  0  0  0  0
   91.5714  -73.2602    2.1994 H   0  0  0  0  0  0  0  0  0  0  0  0
   89.5499  -71.8702    2.5586 H   0  0  0  0  0  0  0  0  0  0  0  0
  1  2  2  0  0  0  0
  2  3  1  0  0  0  0
  2  5  1  0  0  0  0
  3  4  1  0  0  0  0
  4 28  1  0  0  0  0
  4 29  1  0  0  0  0
  4 30  1  0  0  0  0
  5  6  1  0  0  0  0
  5 12  1  0  0  0  0
  5 31  1  6  0  0  0
  6  7  1  0  0  0  0
  6 32  1  0  0  0  0
  6 33  1  0  0  0  0
  7  8  2  0  0  0  0
  7 11  1  0  0  0  0
  8  9  1  0  0  0  0
  8 34  1  0  0  0  0
  9 10  1  0  0  0  0
  9 35  1  0  0  0  0
 10 11  2  0  0  0  0
 10 36  1  0  0  0  0
 12 13  1  0  0  0  0
 12 37  1  0  0  0  0
 13 14  2  0  0  0  0
 13 15  1  0  0  0  0
 15 16  1  0  0  0  0
 15 38  1  0  0  0  0
 15 39  1  0  0  0  0
 16 17  1  0  0  0  0
 16 21  1  0  0  0  0
 16 40  1  1  0  0  0
 17 18  1  0  0  0  0
 17 41  1  0  0  0  0
 17 42  1  0  0  0  0
 18 19  1  0  0  0  0
 18 20  2  0  0  0  0
 21 22  1  0  0  0  0
 21 43  1  0  0  0  0
 21 44  1  0  0  0  0
 22 23  2  0  0  0  0
 22 27  1  0  0  0  0
 23 24  1  0  0  0  0
 23 45  1  0  0  0  0
 24 25  2  0  0  0  0
 24 46  1  0  0  0  0
 25 26  1  0  0  0  0
 25 47  1  0  0  0  0
 26 27  2  0  0  0  0
 26 48  1  0  0  0  0
 27 49  1  0  0  0  0
M  CHG  2  16   1  19  -1
M  END
