4du8_ligand
 OpenBabel08222323353D

 29 29  0  0  1  0  0  0  0  0999 V2000
   16.1060   23.4840   18.0520 C   0  0  0  0  0  0  0  0  0  0  0  0
   14.3540   22.9130   19.7640 N   0  0  0  0  0  0  0  0  0  0  0  0
   16.9510   23.6540   18.9920 O   0  5  0  0  0  0  0  0  0  0  0  0
   14.6290   23.1600   18.3480 C   0  0  1  0  0  0  0  0  0  0  0  0
   13.7570   24.2550   17.8930 C   0  0  0  0  0  0  0  0  0  0  0  0
   13.6020   24.0240   20.2760 C   0  0  0  0  0  0  0  0  0  0  0  0
   12.9460   24.6710   19.0880 C   0  0  0  0  0  0  0  0  0  0  0  0
   14.4330   21.6840   21.7350 O   0  0  0  0  0  0  0  0  0  0  0  0
   18.2660   15.8720   20.7160 O   0  0  0  0  0  1  0  0  0  0  0  0
   18.1360   19.0450   19.6890 O   0  0  0  0  0  1  0  0  0  0  0  0
   16.0250   14.9250   20.1310 O   0  0  0  0  0  1  0  0  0  0  0  0
   17.3810   16.1370   18.4210 O   0  0  0  0  0  0  0  0  0  0  0  0
   17.9020   18.3550   22.0810 O   0  0  0  0  0  0  0  0  0  0  0  0
   15.5200   20.6230   19.9730 C   0  0  0  0  0  0  0  0  0  0  0  0
   16.1690   19.8990   21.0450 O   0  0  0  0  0  0  0  0  0  0  0  0
   16.3000   17.4130   20.3560 O   0  0  0  0  0  0  0  0  0  0  0  0
   14.7500   21.7350   20.5580 C   0  0  0  0  0  0  0  0  0  0  0  0
   16.9900   16.0640   19.9090 P   0  0  0  0  0  0  0  0  0  0  0  0
   17.1470   18.6750   20.7770 P   0  0  1  0  0  0  0  0  0  0  0  0
   16.5040   23.6000   16.8360 O   0  0  0  0  0  0  0  0  0  0  0  0
   14.3705   22.2494   17.7876 H   0  0  0  0  0  0  0  0  0  0  0  0
   13.0956   23.9055   17.0866 H   0  0  0  0  0  0  0  0  0  0  0  0
   14.3624   25.0990   17.5309 H   0  0  0  0  0  0  0  0  0  0  0  0
   14.2712   24.7384   20.7778 H   0  0  0  0  0  0  0  0  0  0  0  0
   12.8403   23.6730   20.9877 H   0  0  0  0  0  0  0  0  0  0  0  0
   11.9080   24.3215   18.9866 H   0  0  0  0  0  0  0  0  0  0  0  0
   12.9555   25.7658   19.1947 H   0  0  0  0  0  0  0  0  0  0  0  0
   14.8427   19.9495   19.4274 H   0  0  0  0  0  0  0  0  0  0  0  0
   16.2778   21.0200   19.2815 H   0  0  0  0  0  0  0  0  0  0  0  0
  1  3  1  0  0  0  0
  1 20  2  0  0  0  0
  2  4  1  0  0  0  0
  2  6  1  0  0  0  0
  4  1  1  0  0  0  0
  4  5  1  0  0  0  0
  4 21  1  6  0  0  0
  5 22  1  0  0  0  0
  5 23  1  0  0  0  0
  6  7  1  0  0  0  0
  6 24  1  0  0  0  0
  6 25  1  0  0  0  0
  7  5  1  0  0  0  0
  7 26  1  0  0  0  0
  7 27  1  0  0  0  0
 14 17  1  0  0  0  0
 14 28  1  0  0  0  0
 14 29  1  0  0  0  0
 15 14  1  0  0  0  0
 16 18  1  0  0  0  0
 16 19  1  0  0  0  0
 17  2  1  0  0  0  0
 17  8  2  0  0  0  0
 18  9  1  0  0  0  0
 18 11  1  0  0  0  0
 18 12  2  0  0  0  0
 19 10  1  6  0  0  0
 19 13  2  0  0  0  0
 19 15  1  0  0  0  0
M  CHG  1   3  -1
M  END
