4dvf_ligand
 OpenBabel08222323353D

142145  0  0  1  0  0  0  0  0999 V2000
    2.8420    2.1540    2.7620 C   0  0  0  0  0  0  0  0  0  0  0  0
   -1.9700    4.0420    3.1460 C   0  0  0  0  0  0  0  0  0  0  0  0
   -1.1620    4.0100    1.8860 C   0  0  0  0  0  0  0  0  0  0  0  0
   -1.3360    3.8880    4.4800 C   0  0  0  0  0  0  0  0  0  0  0  0
    0.3210    3.8240    1.9720 C   0  0  0  0  0  0  0  0  0  0  0  0
    0.1400    3.7010    4.5670 C   0  0  0  0  0  0  0  0  0  0  0  0
    3.0230    4.5980    2.6120 N   0  0  0  0  0  0  0  0  0  0  0  0
    0.9550    3.6610    3.3050 C   0  0  0  0  0  0  0  0  0  0  0  0
    2.4590    3.4790    3.3690 C   0  0  1  0  0  0  0  0  0  0  0  0
    3.9370   11.0650    4.8800 C   0  0  0  0  0  0  0  0  0  0  0  0
    3.8330    5.7070    4.5150 O   0  0  0  0  0  0  0  0  0  0  0  0
    7.2410    7.5100   -1.2060 O   0  0  0  0  0  0  0  0  0  0  0  0
    2.2160   10.4920    2.9690 O   0  0  0  0  0  0  0  0  0  0  0  0
    3.3300   12.6780    2.8470 O   0  0  0  0  0  0  0  0  0  0  0  0
    4.1070    8.2530    2.8270 C   0  0  0  0  0  0  0  0  0  0  0  0
    5.3690    8.9510    0.6140 C   0  0  0  0  0  0  0  0  0  0  0  0
    4.8910    6.4360    1.1600 C   0  0  0  0  0  0  0  0  0  0  0  0
    4.6000   10.7100    2.1950 N   0  0  0  0  0  0  0  0  0  0  0  0
    3.6770    5.6780    3.3000 C   0  0  0  0  0  0  0  0  0  0  0  0
    6.1420    7.0420   -0.9560 C   0  0  0  0  0  0  0  0  0  0  0  0
    4.6660    9.3000    1.8940 C   0  0  0  0  0  0  0  0  0  0  0  0
    4.2230    6.8090    2.4430 C   0  0  0  0  0  0  0  0  0  0  0  0
    5.4420    7.5190    0.2840 C   0  0  0  0  0  0  0  0  0  0  0  0
    3.4280   11.2500    3.1630 S   0  0  0  0  0  0  0  0  0  0  0  0
    5.4720    5.9930   -1.7050 N   0  0  0  0  0  0  0  0  0  0  0  0
    6.1120    5.4100   -2.8630 C   0  0  1  0  0  0  0  0  0  0  0  0
    6.0740    3.9190   -2.6280 C   0  0  0  0  0  0  0  0  0  0  0  0
    6.4650    3.5610   -1.1960 C   0  0  0  0  0  0  0  0  0  0  0  0
    7.5960    4.2170   -0.4610 C   0  0  0  0  0  0  0  0  0  0  0  0
    5.7360    2.4760   -0.4920 C   0  0  0  0  0  0  0  0  0  0  0  0
    7.9440    3.7830    0.9240 C   0  0  0  0  0  0  0  0  0  0  0  0
    6.0760    2.0480    0.8840 C   0  0  0  0  0  0  0  0  0  0  0  0
    7.1940    2.6970    1.6060 C   0  0  0  0  0  0  0  0  0  0  0  0
    5.3430    5.8410   -4.1140 C   0  0  1  0  0  0  0  0  0  0  0  0
    4.0060    5.4800   -4.0920 O   0  0  0  0  0  0  0  0  0  0  0  0
    5.6780    7.2610   -4.6130 C   0  0  0  0  0  0  0  0  0  0  0  0
    7.1340    7.3690   -5.1030 C   0  0  0  0  0  0  0  0  0  0  0  0
    8.0570    7.8180   -4.4200 O   0  0  0  0  0  0  0  0  0  0  0  0
    7.3460    6.8920   -6.4750 N   0  0  0  0  0  0  0  0  0  0  0  0
    8.6630    6.9680   -7.0390 C   0  0  2  0  0  0  0  0  0  0  0  0
    9.0690    8.4050   -7.0190 C   0  0  0  0  0  0  0  0  0  0  0  0
    8.2980    9.2880   -7.3210 O   0  0  0  0  0  0  0  0  0  0  0  0
    8.5870    6.5020   -8.4910 C   0  0  0  0  0  0  0  0  0  0  0  0
    9.9410    6.6290   -9.1920 C   0  0  0  0  0  0  0  0  0  0  0  0
   10.8580    5.5450   -8.7050 C   0  0  0  0  0  0  0  0  0  0  0  0
    9.6890    6.4540  -10.6810 C   0  0  0  0  0  0  0  0  0  0  0  0
   10.4410    8.7140   -6.6810 N   0  0  0  0  0  0  0  0  0  0  0  0
   10.9180   10.0650   -6.7100 C   0  0  2  0  0  0  0  0  0  0  0  0
   11.8420   10.2450   -7.9140 C   0  0  0  0  0  0  0  0  0  0  0  0
   12.4820    9.2940   -8.3220 O   0  0  0  0  0  0  0  0  0  0  0  0
   11.7770   10.2920   -5.4860 C   0  0  0  0  0  0  0  0  0  0  0  0
   11.9910   11.5360   -8.5540 N   0  0  0  0  0  0  0  0  0  0  0  0
   12.9300   11.6660   -9.6540 C   0  0  1  0  0  0  0  0  0  0  0  0
   12.3350   12.2820  -10.8750 C   0  0  0  0  0  0  0  0  0  0  0  0
   12.6190   13.4060  -11.2250 O   0  0  0  0  0  0  0  0  0  0  0  0
   14.1120   12.5330   -9.2390 C   0  0  0  0  0  0  0  0  0  0  0  0
   14.7960   11.9350   -8.0030 C   0  0  0  0  0  0  0  0  0  0  0  0
   14.6060   12.5710   -6.6610 C   0  0  0  0  0  0  0  0  0  0  0  0
   16.3260   10.1450   -6.9230 C   0  0  0  0  0  0  0  0  0  0  0  0
   15.2870   11.9790   -5.4590 C   0  0  0  0  0  0  0  0  0  0  0  0
   16.1400   10.7670   -5.5870 C   0  0  0  0  0  0  0  0  0  0  0  0
   11.2440   12.6830   -8.1000 C   0  0  0  0  0  0  0  0  0  0  0  0
    9.8950   15.6100  -13.6360 C   0  0  0  0  0  0  0  0  0  0  0  0
    9.4890   13.7130  -11.7700 O   0  0  0  0  0  0  0  0  0  0  0  0
   10.2760    9.7030  -12.6070 C   0  0  0  0  0  0  0  0  0  0  0  0
    9.7740   10.9700  -13.2510 C   0  0  0  0  0  0  0  0  0  0  0  0
   10.9700   10.1490  -11.3400 C   0  0  0  0  0  0  0  0  0  0  0  0
   10.4550   14.3270  -13.7160 O   0  0  0  0  0  0  0  0  0  0  0  0
   10.1370   13.3710  -12.7620 C   0  0  0  0  0  0  0  0  0  0  0  0
   10.7630   11.9970  -12.8700 C   0  0  1  0  0  0  0  0  0  0  0  0
   11.3940   11.5050  -11.6430 N   0  0  0  0  0  0  0  0  0  0  0  0
    2.4023    1.3384    3.3548 H   0  0  0  0  0  0  0  0  0  0  0  0
    3.9375    2.0552    2.7585 H   0  0  0  0  0  0  0  0  0  0  0  0
    2.4657    2.1011    1.7297 H   0  0  0  0  0  0  0  0  0  0  0  0
   -3.0432    4.1809    3.0830 H   0  0  0  0  0  0  0  0  0  0  0  0
   -1.6454    4.1203    0.9221 H   0  0  0  0  0  0  0  0  0  0  0  0
   -1.9397    3.9113    5.3800 H   0  0  0  0  0  0  0  0  0  0  0  0
    0.9249    3.8085    1.0719 H   0  0  0  0  0  0  0  0  0  0  0  0
    0.6216    3.5947    5.5323 H   0  0  0  0  0  0  0  0  0  0  0  0
    2.9533    4.6113    1.6145 H   0  0  0  0  0  0  0  0  0  0  0  0
    2.8062    3.5144    4.4121 H   0  0  0  0  0  0  0  0  0  0  0  0
    4.0133    9.9957    5.1266 H   0  0  0  0  0  0  0  0  0  0  0  0
    3.1931   11.5404    5.5362 H   0  0  0  0  0  0  0  0  0  0  0  0
    4.9155   11.5457    5.0262 H   0  0  0  0  0  0  0  0  0  0  0  0
    3.6306    8.5403    3.7573 H   0  0  0  0  0  0  0  0  0  0  0  0
    5.7980    9.7103   -0.0298 H   0  0  0  0  0  0  0  0  0  0  0  0
    4.9759    5.3958    0.8669 H   0  0  0  0  0  0  0  0  0  0  0  0
    5.2711   11.3430    1.8091 H   0  0  0  0  0  0  0  0  0  0  0  0
    4.5682    5.6741   -1.4197 H   0  0  0  0  0  0  0  0  0  0  0  0
    7.1552    5.7490   -2.9449 H   0  0  0  0  0  0  0  0  0  0  0  0
    6.7752    3.4312   -3.3211 H   0  0  0  0  0  0  0  0  0  0  0  0
    5.0544    3.5540   -2.8206 H   0  0  0  0  0  0  0  0  0  0  0  0
    8.1626    5.0090   -0.9373 H   0  0  0  0  0  0  0  0  0  0  0  0
    4.9223    1.9772   -1.0060 H   0  0  0  0  0  0  0  0  0  0  0  0
    8.7612    4.2705    1.4432 H   0  0  0  0  0  0  0  0  0  0  0  0
    5.5065    1.2596    1.3628 H   0  0  0  0  0  0  0  0  0  0  0  0
    7.4594    2.3865    2.6101 H   0  0  0  0  0  0  0  0  0  0  0  0
    5.7594    5.2000   -4.9050 H   0  0  0  0  0  0  0  0  0  0  0  0
    3.5864    5.7745   -4.8919 H   0  0  0  0  0  0  0  0  0  0  0  0
    5.5268    7.9727   -3.7881 H   0  0  0  0  0  0  0  0  0  0  0  0
    5.0034    7.5142   -5.4441 H   0  0  0  0  0  0  0  0  0  0  0  0
    6.5854    6.5204   -7.0074 H   0  0  0  0  0  0  0  0  0  0  0  0
    9.3730    6.3510   -6.4687 H   0  0  0  0  0  0  0  0  0  0  0  0
    7.8485    7.1174   -9.0258 H   0  0  0  0  0  0  0  0  0  0  0  0
    8.2709    5.4486   -8.5123 H   0  0  0  0  0  0  0  0  0  0  0  0
   10.3864    7.6147   -8.9919 H   0  0  0  0  0  0  0  0  0  0  0  0
   11.8320    5.6351   -9.2083 H   0  0  0  0  0  0  0  0  0  0  0  0
   10.4177    4.5628   -8.9318 H   0  0  0  0  0  0  0  0  0  0  0  0
   10.9965    5.6427   -7.6181 H   0  0  0  0  0  0  0  0  0  0  0  0
    9.0169    7.2495  -11.0351 H   0  0  0  0  0  0  0  0  0  0  0  0
    9.2238    5.4737  -10.8615 H   0  0  0  0  0  0  0  0  0  0  0  0
   10.6439    6.5122  -11.2239 H   0  0  0  0  0  0  0  0  0  0  0  0
   11.0645    7.9756   -6.4239 H   0  0  0  0  0  0  0  0  0  0  0  0
   10.0773   10.7734   -6.7455 H   0  0  0  0  0  0  0  0  0  0  0  0
   12.1539   11.3254   -5.4891 H   0  0  0  0  0  0  0  0  0  0  0  0
   12.6256    9.5922   -5.4986 H   0  0  0  0  0  0  0  0  0  0  0  0
   11.1763   10.1236   -4.5801 H   0  0  0  0  0  0  0  0  0  0  0  0
   13.2924   10.6598   -9.9112 H   0  0  0  0  0  0  0  0  0  0  0  0
   13.7548   13.5462   -9.0026 H   0  0  0  0  0  0  0  0  0  0  0  0
   14.8350   12.5828  -10.0665 H   0  0  0  0  0  0  0  0  0  0  0  0
   15.8772   11.9382   -8.2056 H   0  0  0  0  0  0  0  0  0  0  0  0
   14.4424   10.8971   -7.9154 H   0  0  0  0  0  0  0  0  0  0  0  0
   13.5259   12.5631   -6.4531 H   0  0  0  0  0  0  0  0  0  0  0  0
   14.9553   13.6105   -6.7471 H   0  0  0  0  0  0  0  0  0  0  0  0
   16.9812    9.2663   -6.8303 H   0  0  0  0  0  0  0  0  0  0  0  0
   16.7854   10.8744   -7.6063 H   0  0  0  0  0  0  0  0  0  0  0  0
   15.3493    9.8336   -7.3217 H   0  0  0  0  0  0  0  0  0  0  0  0
   15.1544   12.4429   -4.4827 H   0  0  0  0  0  0  0  0  0  0  0  0
   16.6234   10.3399   -4.7096 H   0  0  0  0  0  0  0  0  0  0  0  0
   10.5905   12.3882   -7.2657 H   0  0  0  0  0  0  0  0  0  0  0  0
   10.6308   13.0717   -8.9263 H   0  0  0  0  0  0  0  0  0  0  0  0
   11.9408   13.4639   -7.7616 H   0  0  0  0  0  0  0  0  0  0  0  0
   10.2619   16.2230  -14.4724 H   0  0  0  0  0  0  0  0  0  0  0  0
   10.1850   16.0780  -12.6837 H   0  0  0  0  0  0  0  0  0  0  0  0
    8.7988   15.5356  -13.6892 H   0  0  0  0  0  0  0  0  0  0  0  0
   10.9832    9.1863  -13.2725 H   0  0  0  0  0  0  0  0  0  0  0  0
    9.4371    9.0318  -12.3712 H   0  0  0  0  0  0  0  0  0  0  0  0
    8.7761   11.2310  -12.8690 H   0  0  0  0  0  0  0  0  0  0  0  0
    9.7306   10.8592  -14.3445 H   0  0  0  0  0  0  0  0  0  0  0  0
   11.8354    9.5069  -11.1191 H   0  0  0  0  0  0  0  0  0  0  0  0
   10.2762   10.1358  -10.4865 H   0  0  0  0  0  0  0  0  0  0  0  0
   11.5337   12.0554  -13.6527 H   0  0  0  0  0  0  0  0  0  0  0  0
  1 72  1  0  0  0  0
  1 73  1  0  0  0  0
  1 74  1  0  0  0  0
  2 75  1  0  0  0  0
  3  2  2  0  0  0  0
  3 76  1  0  0  0  0
  4  2  1  0  0  0  0
  4 77  1  0  0  0  0
  5  3  1  0  0  0  0
  5 78  1  0  0  0  0
  6  4  2  0  0  0  0
  6 79  1  0  0  0  0
  7  9  1  0  0  0  0
  7 80  1  0  0  0  0
  8  5  2  0  0  0  0
  8  6  1  0  0  0  0
  9  1  1  0  0  0  0
  9  8  1  0  0  0  0
  9 81  1  1  0  0  0
 10 82  1  0  0  0  0
 10 83  1  0  0  0  0
 10 84  1  0  0  0  0
 15 85  1  0  0  0  0
 16 21  1  0  0  0  0
 16 86  1  0  0  0  0
 17 22  2  0  0  0  0
 17 87  1  0  0  0  0
 18 24  1  0  0  0  0
 18 88  1  0  0  0  0
 19  7  1  0  0  0  0
 19 11  2  0  0  0  0
 20 12  2  0  0  0  0
 20 23  1  0  0  0  0
 21 15  2  0  0  0  0
 21 18  1  0  0  0  0
 22 15  1  0  0  0  0
 22 19  1  0  0  0  0
 23 16  2  0  0  0  0
 23 17  1  0  0  0  0
 24 10  1  0  0  0  0
 24 13  2  0  0  0  0
 24 14  2  0  0  0  0
 25 20  1  0  0  0  0
 25 89  1  0  0  0  0
 26 25  1  0  0  0  0
 26 27  1  0  0  0  0
 26 90  1  6  0  0  0
 27 28  1  0  0  0  0
 27 91  1  0  0  0  0
 27 92  1  0  0  0  0
 28 29  2  0  0  0  0
 28 30  1  0  0  0  0
 29 31  1  0  0  0  0
 29 93  1  0  0  0  0
 30 32  2  0  0  0  0
 30 94  1  0  0  0  0
 31 33  2  0  0  0  0
 31 95  1  0  0  0  0
 32 33  1  0  0  0  0
 32 96  1  0  0  0  0
 33 97  1  0  0  0  0
 34 26  1  0  0  0  0
 34 35  1  0  0  0  0
 34 98  1  6  0  0  0
 35 99  1  0  0  0  0
 36 34  1  0  0  0  0
 36100  1  0  0  0  0
 36101  1  0  0  0  0
 37 36  1  0  0  0  0
 37 38  2  0  0  0  0
 39 37  1  0  0  0  0
 39102  1  0  0  0  0
 40 39  1  0  0  0  0
 40 43  1  0  0  0  0
 40103  1  1  0  0  0
 41 40  1  0  0  0  0
 41 42  2  0  0  0  0
 43 44  1  0  0  0  0
 43104  1  0  0  0  0
 43105  1  0  0  0  0
 44 45  1  0  0  0  0
 44 46  1  0  0  0  0
 44106  1  0  0  0  0
 45107  1  0  0  0  0
 45108  1  0  0  0  0
 45109  1  0  0  0  0
 46110  1  0  0  0  0
 46111  1  0  0  0  0
 46112  1  0  0  0  0
 47 41  1  0  0  0  0
 47113  1  0  0  0  0
 48 47  1  0  0  0  0
 48 51  1  0  0  0  0
 48114  1  6  0  0  0
 49 48  1  0  0  0  0
 49 50  2  0  0  0  0
 51115  1  0  0  0  0
 51116  1  0  0  0  0
 51117  1  0  0  0  0
 52 49  1  0  0  0  0
 52 62  1  0  0  0  0
 53 52  1  0  0  0  0
 53 56  1  0  0  0  0
 53118  1  6  0  0  0
 54 53  1  0  0  0  0
 54 55  2  0  0  0  0
 56 57  1  0  0  0  0
 56119  1  0  0  0  0
 56120  1  0  0  0  0
 57 58  1  0  0  0  0
 57121  1  0  0  0  0
 57122  1  0  0  0  0
 58 60  1  0  0  0  0
 58123  1  0  0  0  0
 58124  1  0  0  0  0
 59125  1  0  0  0  0
 59126  1  0  0  0  0
 59127  1  0  0  0  0
 60 61  2  0  0  0  0
 60128  1  0  0  0  0
 61 59  1  0  0  0  0
 61129  1  0  0  0  0
 62130  1  0  0  0  0
 62131  1  0  0  0  0
 62132  1  0  0  0  0
 63133  1  0  0  0  0
 63134  1  0  0  0  0
 63135  1  0  0  0  0
 65 67  1  0  0  0  0
 65136  1  0  0  0  0
 65137  1  0  0  0  0
 66 65  1  0  0  0  0
 66138  1  0  0  0  0
 66139  1  0  0  0  0
 67 71  1  0  0  0  0
 67140  1  0  0  0  0
 67141  1  0  0  0  0
 68 63  1  0  0  0  0
 69 64  2  0  0  0  0
 69 68  1  0  0  0  0
 69 70  1  0  0  0  0
 70 66  1  0  0  0  0
 70 71  1  0  0  0  0
 70142  1  6  0  0  0
 71 54  1  0  0  0  0
M  END
