4dvi_ligand
 OpenBabel08222323353D

 53 58  0  0  1  0  0  0  0  0999 V2000
   -4.0410   44.6030   26.7270 C   0  0  2  0  0  0  0  0  0  0  0  0
   -6.0050   43.3070   26.9170 N   0  0  0  0  0  0  0  0  0  0  0  0
   -3.9120   42.1870   26.8600 O   0  0  0  0  0  0  0  0  0  0  0  0
   -3.3630   45.1160   28.0730 C   0  0  2  0  0  0  0  0  0  0  0  0
  -13.0290   40.0250   29.3460 N   0  0  0  0  0  0  0  0  0  0  0  0
   -7.6070   45.0120   27.0530 O   0  0  0  0  0  0  0  0  0  0  0  0
   -5.2680   45.5440   26.8410 C   0  0  1  0  0  0  0  0  0  0  0  0
  -10.5210   39.0580   28.0520 N   0  0  0  0  0  0  0  0  0  0  0  0
   -9.1860   37.8050   26.6530 O   0  0  0  0  0  0  0  0  0  0  0  0
   -4.6250   43.1880   26.8460 C   0  0  0  0  0  0  0  0  0  0  0  0
   -6.4600   44.6020   26.9500 C   0  0  0  0  0  0  0  0  0  0  0  0
   -5.1390   46.4670   28.1660 C   0  0  2  0  0  0  0  0  0  0  0  0
   -4.1390   44.5380   29.2590 C   0  0  0  0  0  0  0  0  0  0  0  0
   -3.6140   46.5880   28.1720 C   0  0  0  0  0  0  0  0  0  0  0  0
   -5.1400   45.4630   29.3620 C   0  0  0  0  0  0  0  0  0  0  0  0
  -11.5650   38.1740   28.2460 C   0  0  0  0  0  0  0  0  0  0  0  0
   -9.4050   38.8610   27.2580 C   0  0  0  0  0  0  0  0  0  0  0  0
  -15.3130   39.5990   30.1570 C   0  0  0  0  0  0  0  0  0  0  0  0
  -15.1940   38.2200   29.7200 C   0  0  0  0  0  0  0  0  0  0  0  0
  -13.9770   37.7040   29.0700 C   0  0  0  0  0  0  0  0  0  0  0  0
  -12.8080   38.6700   28.8810 C   0  0  0  0  0  0  0  0  0  0  0  0
  -14.1910   40.5100   29.9650 C   0  0  0  0  0  0  0  0  0  0  0  0
  -13.7680   36.3300   28.6290 C   0  0  0  0  0  0  0  0  0  0  0  0
  -12.5340   35.8550   28.0140 C   0  0  0  0  0  0  0  0  0  0  0  0
  -11.4400   36.7710   27.8310 C   0  0  0  0  0  0  0  0  0  0  0  0
  -16.3850   37.3710   29.9340 C   0  0  0  0  0  0  0  0  0  0  0  0
   -7.9910   40.5720   28.4090 C   0  0  0  0  0  0  0  0  0  0  0  0
   -7.1310   41.7170   28.2900 C   0  0  0  0  0  0  0  0  0  0  0  0
   -6.8200   42.2350   26.9700 C   0  0  0  0  0  0  0  0  0  0  0  0
   -7.3270   41.6750   25.7380 C   0  0  0  0  0  0  0  0  0  0  0  0
   -8.1920   40.5260   25.8480 C   0  0  0  0  0  0  0  0  0  0  0  0
   -8.4980   40.0150   27.1790 C   0  0  0  0  0  0  0  0  0  0  0  0
   -3.4161   44.7243   25.8299 H   0  0  0  0  0  0  0  0  0  0  0  0
   -2.2925   44.8655   28.1093 H   0  0  0  0  0  0  0  0  0  0  0  0
   -5.3567   46.1843   25.9510 H   0  0  0  0  0  0  0  0  0  0  0  0
  -10.5778   39.9313   28.5359 H   0  0  0  0  0  0  0  0  0  0  0  0
   -5.7710   47.3651   28.2292 H   0  0  0  0  0  0  0  0  0  0  0  0
   -3.9480   43.6446   29.8517 H   0  0  0  0  0  0  0  0  0  0  0  0
   -3.2252   47.1481   27.3088 H   0  0  0  0  0  0  0  0  0  0  0  0
   -3.2227   47.0280   29.1011 H   0  0  0  0  0  0  0  0  0  0  0  0
   -5.8551   45.4960   30.1827 H   0  0  0  0  0  0  0  0  0  0  0  0
  -16.2278   39.9484   30.6219 H   0  0  0  0  0  0  0  0  0  0  0  0
  -14.2533   41.5411   30.2938 H   0  0  0  0  0  0  0  0  0  0  0  0
  -14.5763   35.6209   28.7662 H   0  0  0  0  0  0  0  0  0  0  0  0
  -12.4420   34.8222   27.6980 H   0  0  0  0  0  0  0  0  0  0  0  0
  -10.5162   36.4228   27.3833 H   0  0  0  0  0  0  0  0  0  0  0  0
  -17.1696   37.9590   30.4327 H   0  0  0  0  0  0  0  0  0  0  0  0
  -16.1141   36.5116   30.5649 H   0  0  0  0  0  0  0  0  0  0  0  0
  -16.7576   37.0107   28.9638 H   0  0  0  0  0  0  0  0  0  0  0  0
   -8.2457   40.1485   29.3738 H   0  0  0  0  0  0  0  0  0  0  0  0
   -6.7194   42.1883   29.1752 H   0  0  0  0  0  0  0  0  0  0  0  0
   -7.0688   42.0994   24.7745 H   0  0  0  0  0  0  0  0  0  0  0  0
   -8.6043   40.0542   24.9634 H   0  0  0  0  0  0  0  0  0  0  0  0
  1  4  1  0  0  0  0
  1 33  1  6  0  0  0
  2 10  1  0  0  0  0
  2 11  1  0  0  0  0
  4 13  1  0  0  0  0
  4 14  1  0  0  0  0
  4 34  1  1  0  0  0
  5 22  1  0  0  0  0
  7  1  1  0  0  0  0
  7 12  1  0  0  0  0
  7 35  1  6  0  0  0
  8 16  1  0  0  0  0
  8 36  1  0  0  0  0
 10  1  1  0  0  0  0
 10  3  2  0  0  0  0
 11  6  2  0  0  0  0
 11  7  1  0  0  0  0
 12 14  1  0  0  0  0
 12 15  1  0  0  0  0
 12 37  1  1  0  0  0
 13 38  1  0  0  0  0
 14 39  1  0  0  0  0
 14 40  1  0  0  0  0
 15 13  2  0  0  0  0
 15 41  1  0  0  0  0
 16 21  1  0  0  0  0
 16 25  2  0  0  0  0
 17  8  1  0  0  0  0
 17  9  2  0  0  0  0
 18 42  1  0  0  0  0
 19 18  1  0  0  0  0
 19 26  1  0  0  0  0
 20 19  2  0  0  0  0
 20 23  1  0  0  0  0
 21  5  2  0  0  0  0
 21 20  1  0  0  0  0
 22 18  2  0  0  0  0
 22 43  1  0  0  0  0
 23 44  1  0  0  0  0
 24 23  2  0  0  0  0
 24 45  1  0  0  0  0
 25 24  1  0  0  0  0
 25 46  1  0  0  0  0
 26 47  1  0  0  0  0
 26 48  1  0  0  0  0
 26 49  1  0  0  0  0
 27 32  1  0  0  0  0
 27 50  1  0  0  0  0
 28 27  2  0  0  0  0
 28 29  1  0  0  0  0
 28 51  1  0  0  0  0
 29  2  1  0  0  0  0
 29 30  2  0  0  0  0
 30 31  1  0  0  0  0
 30 52  1  0  0  0  0
 31 32  2  0  0  0  0
 31 53  1  0  0  0  0
 32 17  1  0  0  0  0
M  END
