4dwb_ligand
 OpenBabel08222323353D

 32 31  0  0  0  0  0  0  0  0999 V2000
   13.1500   13.2480  177.6410 O   0  0  0  0  0  1  0  0  0  0  0  0
   12.8000   14.0940  176.4560 P   0  0  0  0  0  0  0  0  0  0  0  0
   13.9690   14.3150  175.4870 O   0  0  0  0  0  1  0  0  0  0  0  0
   11.5200   13.6490  175.8060 O   0  0  0  0  0  0  0  0  0  0  0  0
   12.3270   15.7180  177.0850 C   0  0  0  0  0  0  0  0  0  0  0  0
   13.6660   16.5560  177.9900 P   0  0  0  0  0  0  0  0  0  0  0  0
   14.0210   15.5500  179.0580 O   0  0  0  0  0  1  0  0  0  0  0  0
   14.7090   16.7620  176.9020 O   0  0  0  0  0  1  0  0  0  0  0  0
   13.1300   17.8490  178.4860 O   0  0  0  0  0  0  0  0  0  0  0  0
   11.9670   16.5080  175.8390 C   0  0  0  0  0  0  0  0  0  0  0  0
   10.7570   17.2520  176.1600 N   0  3  0  0  0  0  0  0  0  0  0  0
   10.2870   18.2640  175.2400 C   0  0  0  0  0  0  0  0  0  0  0  0
   11.3190   19.3850  175.1320 C   0  0  0  0  0  0  0  0  0  0  0  0
   11.2510   20.0400  173.7650 C   0  0  0  0  0  0  0  0  0  0  0  0
   10.4080   21.2840  173.8490 C   0  0  0  0  0  0  0  0  0  0  0  0
    8.9970   20.9520  173.3720 C   0  0  0  0  0  0  0  0  0  0  0  0
   11.4552   15.6239  177.7491 H   0  0  0  0  0  0  0  0  0  0  0  0
   11.7819   15.8259  174.9961 H   0  0  0  0  0  0  0  0  0  0  0  0
   12.7814   17.2001  175.5786 H   0  0  0  0  0  0  0  0  0  0  0  0
   10.9179   17.7092  177.0438 H   0  0  0  0  0  0  0  0  0  0  0  0
   10.0145   16.5778  176.2607 H   0  0  0  0  0  0  0  0  0  0  0  0
    9.3359   18.6774  175.6067 H   0  0  0  0  0  0  0  0  0  0  0  0
   10.1328   17.8130  174.2486 H   0  0  0  0  0  0  0  0  0  0  0  0
   12.3250   18.9667  175.2833 H   0  0  0  0  0  0  0  0  0  0  0  0
   11.1156   20.1400  175.9056 H   0  0  0  0  0  0  0  0  0  0  0  0
   10.8022   19.3404  173.0446 H   0  0  0  0  0  0  0  0  0  0  0  0
   12.2659   20.3059  173.4344 H   0  0  0  0  0  0  0  0  0  0  0  0
   10.8400   22.0678  173.2095 H   0  0  0  0  0  0  0  0  0  0  0  0
   10.3731   21.6379  174.8899 H   0  0  0  0  0  0  0  0  0  0  0  0
    8.3693   21.8536  173.4282 H   0  0  0  0  0  0  0  0  0  0  0  0
    8.5688   20.1667  174.0122 H   0  0  0  0  0  0  0  0  0  0  0  0
    9.0357   20.5965  172.3317 H   0  0  0  0  0  0  0  0  0  0  0  0
  1  2  1  0  0  0  0
  2  3  1  0  0  0  0
  2  4  2  0  0  0  0
  2  5  1  0  0  0  0
  5  6  1  0  0  0  0
  5 10  1  0  0  0  0
  5 17  1  0  0  0  0
  6  7  1  0  0  0  0
  6  8  1  0  0  0  0
  6  9  2  0  0  0  0
 10 11  1  0  0  0  0
 10 18  1  0  0  0  0
 10 19  1  0  0  0  0
 11 12  1  0  0  0  0
 11 20  1  0  0  0  0
 11 21  1  0  0  0  0
 12 13  1  0  0  0  0
 12 22  1  0  0  0  0
 12 23  1  0  0  0  0
 13 14  1  0  0  0  0
 13 24  1  0  0  0  0
 13 25  1  0  0  0  0
 14 15  1  0  0  0  0
 14 26  1  0  0  0  0
 14 27  1  0  0  0  0
 15 16  1  0  0  0  0
 15 28  1  0  0  0  0
 15 29  1  0  0  0  0
 16 30  1  0  0  0  0
 16 31  1  0  0  0  0
 16 32  1  0  0  0  0
M  CHG  1  11   1
M  END
