4dwg_ligand
 OpenBabel08222323353D

 38 37  0  0  0  0  0  0  0  0999 V2000
   11.0810   14.1310  175.5230 O   0  0  0  0  0  1  0  0  0  0  0  0
   12.4360   14.6220  175.9920 P   0  0  0  0  0  0  0  0  0  0  0  0
   13.5350   14.5040  175.0030 O   0  0  0  0  0  1  0  0  0  0  0  0
   12.7710   14.1420  177.4000 O   0  0  0  0  0  0  0  0  0  0  0  0
   12.3670   16.4370  175.9770 C   0  0  0  0  0  0  0  0  0  0  0  0
   13.4480   17.1260  177.2950 P   0  0  0  0  0  0  0  0  0  0  0  0
   14.5950   17.1090  176.3180 O   0  0  0  0  0  1  0  0  0  0  0  0
   13.7070   16.2610  178.5000 O   0  0  0  0  0  1  0  0  0  0  0  0
   13.0130   18.5030  177.7630 O   0  0  0  0  0  0  0  0  0  0  0  0
   11.0050   17.1250  175.8130 C   0  0  0  0  0  0  0  0  0  0  0  0
   11.2440   18.5640  175.7210 N   0  3  0  0  0  0  0  0  0  0  0  0
   11.0330   19.3740  174.5500 C   0  0  0  0  0  0  0  0  0  0  0  0
   10.8510   20.8640  174.9590 C   0  0  0  0  0  0  0  0  0  0  0  0
   10.4370   21.7200  173.7430 C   0  0  0  0  0  0  0  0  0  0  0  0
   11.5680   21.7790  172.7050 C   0  0  0  0  0  0  0  0  0  0  0  0
   11.5700   23.0730  171.8960 C   0  0  0  0  0  0  0  0  0  0  0  0
   12.4650   23.0120  170.6520 C   0  0  0  0  0  0  0  0  0  0  0  0
   12.4430   24.3110  169.8460 C   0  0  0  0  0  0  0  0  0  0  0  0
   12.8813   16.7043  175.0421 H   0  0  0  0  0  0  0  0  0  0  0  0
   10.3671   16.9057  176.6819 H   0  0  0  0  0  0  0  0  0  0  0  0
   10.5122   16.7675  174.8968 H   0  0  0  0  0  0  0  0  0  0  0  0
   12.2155   18.6884  175.9592 H   0  0  0  0  0  0  0  0  0  0  0  0
   10.6669   18.9761  176.4373 H   0  0  0  0  0  0  0  0  0  0  0  0
   10.1305   19.0275  174.0253 H   0  0  0  0  0  0  0  0  0  0  0  0
   11.9027   19.2832  173.8827 H   0  0  0  0  0  0  0  0  0  0  0  0
   11.8006   21.2458  175.3621 H   0  0  0  0  0  0  0  0  0  0  0  0
   10.0706   20.9332  175.7311 H   0  0  0  0  0  0  0  0  0  0  0  0
   10.2060   22.7405  174.0825 H   0  0  0  0  0  0  0  0  0  0  0  0
    9.5439   21.2773  173.2779 H   0  0  0  0  0  0  0  0  0  0  0  0
   11.4518   20.9328  172.0119 H   0  0  0  0  0  0  0  0  0  0  0  0
   12.5305   21.6930  173.2305 H   0  0  0  0  0  0  0  0  0  0  0  0
   11.9270   23.8881  172.5427 H   0  0  0  0  0  0  0  0  0  0  0  0
   10.5397   23.2847  171.5742 H   0  0  0  0  0  0  0  0  0  0  0  0
   12.1163   22.1918  170.0073 H   0  0  0  0  0  0  0  0  0  0  0  0
   13.4987   22.8134  170.9714 H   0  0  0  0  0  0  0  0  0  0  0  0
   13.0998   24.2098  168.9695 H   0  0  0  0  0  0  0  0  0  0  0  0
   12.7979   25.1397  170.4763 H   0  0  0  0  0  0  0  0  0  0  0  0
   11.4155   24.5181  169.5122 H   0  0  0  0  0  0  0  0  0  0  0  0
  1  2  1  0  0  0  0
  2  3  1  0  0  0  0
  2  4  2  0  0  0  0
  2  5  1  0  0  0  0
  5  6  1  0  0  0  0
  5 10  1  0  0  0  0
  5 19  1  0  0  0  0
  6  7  1  0  0  0  0
  6  8  1  0  0  0  0
  6  9  2  0  0  0  0
 10 11  1  0  0  0  0
 10 20  1  0  0  0  0
 10 21  1  0  0  0  0
 11 12  1  0  0  0  0
 11 22  1  0  0  0  0
 11 23  1  0  0  0  0
 12 13  1  0  0  0  0
 12 24  1  0  0  0  0
 12 25  1  0  0  0  0
 13 14  1  0  0  0  0
 13 26  1  0  0  0  0
 13 27  1  0  0  0  0
 14 15  1  0  0  0  0
 14 28  1  0  0  0  0
 14 29  1  0  0  0  0
 15 16  1  0  0  0  0
 15 30  1  0  0  0  0
 15 31  1  0  0  0  0
 16 17  1  0  0  0  0
 16 32  1  0  0  0  0
 16 33  1  0  0  0  0
 17 18  1  0  0  0  0
 17 34  1  0  0  0  0
 17 35  1  0  0  0  0
 18 36  1  0  0  0  0
 18 37  1  0  0  0  0
 18 38  1  0  0  0  0
M  CHG  1  11   1
M  END
