4dwk_ligand
 OpenBabel08222323353D

 55 56  0  0  1  0  0  0  0  0999 V2000
  108.1710  -64.8070   -9.1130 C   0  0  0  0  0  0  0  0  0  0  0  0
  106.0670  -69.2490   -8.4640 N   0  0  0  0  0  0  0  0  0  0  0  0
  104.8140  -69.7400   -8.5730 C   0  0  0  0  0  0  0  0  0  0  0  0
  104.3000  -70.4070   -9.8520 C   0  0  0  0  0  0  0  0  0  0  0  0
  101.8420  -70.2150   -9.4490 C   0  0  0  0  0  0  0  0  0  0  0  0
   98.1380  -69.8500   -9.7310 C   0  0  0  0  0  0  0  0  0  0  0  0
   96.9470  -70.1150   -9.0210 C   0  0  0  0  0  0  0  0  0  0  0  0
   95.8210  -69.2810   -9.1730 C   0  0  0  0  0  0  0  0  0  0  0  0
   97.0530  -67.8980  -10.7540 C   0  0  0  0  0  0  0  0  0  0  0  0
  103.0260  -72.3560   -8.8870 C   0  0  0  0  0  0  0  0  0  0  0  0
  102.6080  -72.0410   -6.4890 O   0  5  0  0  0  0  0  0  0  0  0  0
  103.4380  -72.3350   -7.3990 C   0  0  0  0  0  0  0  0  0  0  0  0
  104.6190  -72.6520   -7.1120 O   0  0  0  0  0  0  0  0  0  0  0  0
  102.9890  -71.1150   -9.7500 N   0  3  2  0  0  0  0  0  0  0  0  0
  100.6150  -70.4740  -10.3260 C   0  0  0  0  0  0  0  0  0  0  0  0
   99.3380  -70.7900   -9.5220 C   0  0  0  0  0  0  0  0  0  0  0  0
   98.1740  -68.7280  -10.5980 C   0  0  0  0  0  0  0  0  0  0  0  0
   95.8750  -68.1750  -10.0390 C   0  0  0  0  0  0  0  0  0  0  0  0
  104.0550  -69.6480   -7.6300 O   0  0  0  0  0  0  0  0  0  0  0  0
  107.1540  -69.5720   -9.3700 C   0  0  2  0  0  0  0  0  0  0  0  0
  108.1910  -70.5000   -8.7680 C   0  0  0  0  0  0  0  0  0  0  0  0
  108.9700  -70.0020   -7.9820 O   0  0  0  0  0  0  0  0  0  0  0  0
  108.2890  -71.9390   -9.1230 O   0  0  0  0  0  0  0  0  0  0  0  0
  108.5190  -73.0070   -8.1970 C   0  0  0  0  0  0  0  0  0  0  0  0
  107.7770  -68.3250  -10.0440 C   0  0  0  0  0  0  0  0  0  0  0  0
  107.7910  -66.9640   -9.3760 C   0  0  0  0  0  0  0  0  0  0  0  0
  108.2890  -65.8510   -9.9580 N   0  0  0  0  0  0  0  0  0  0  0  0
  107.5710  -65.2500   -7.9810 N   0  0  0  0  0  0  0  0  0  0  0  0
  107.3370  -66.5790   -8.1180 C   0  0  0  0  0  0  0  0  0  0  0  0
  108.4999  -63.7870   -9.3060 H   0  0  0  0  0  0  0  0  0  0  0  0
  106.2588  -68.6215   -7.7094 H   0  0  0  0  0  0  0  0  0  0  0  0
  105.0533  -71.1418  -10.1724 H   0  0  0  0  0  0  0  0  0  0  0  0
  104.1998  -69.6259  -10.6200 H   0  0  0  0  0  0  0  0  0  0  0  0
  102.1661  -69.1751   -9.6024 H   0  0  0  0  0  0  0  0  0  0  0  0
  101.5542  -70.3580   -8.3970 H   0  0  0  0  0  0  0  0  0  0  0  0
   96.8980  -70.9674   -8.3531 H   0  0  0  0  0  0  0  0  0  0  0  0
   94.9122  -69.4927   -8.6214 H   0  0  0  0  0  0  0  0  0  0  0  0
   97.0955  -67.0465  -11.4234 H   0  0  0  0  0  0  0  0  0  0  0  0
  102.0088  -72.7737   -8.9137 H   0  0  0  0  0  0  0  0  0  0  0  0
  103.7204  -73.0496   -9.3837 H   0  0  0  0  0  0  0  0  0  0  0  0
  102.8100  -71.4562  -10.6815 H   0  0  0  0  0  0  0  0  0  0  0  0
  100.8319  -71.3282  -10.9842 H   0  0  0  0  0  0  0  0  0  0  0  0
  100.4287  -69.5784  -10.9369 H   0  0  0  0  0  0  0  0  0  0  0  0
   99.0164  -71.8062   -9.7937 H   0  0  0  0  0  0  0  0  0  0  0  0
   99.6012  -70.7618   -8.4543 H   0  0  0  0  0  0  0  0  0  0  0  0
   99.0814  -68.5081  -11.1487 H   0  0  0  0  0  0  0  0  0  0  0  0
   95.0076  -67.5354  -10.1554 H   0  0  0  0  0  0  0  0  0  0  0  0
  106.6904  -70.1447  -10.1867 H   0  0  0  0  0  0  0  0  0  0  0  0
  108.5436  -73.9636   -8.7394 H   0  0  0  0  0  0  0  0  0  0  0  0
  107.7090  -73.0281   -7.4531 H   0  0  0  0  0  0  0  0  0  0  0  0
  109.4810  -72.8496   -7.6873 H   0  0  0  0  0  0  0  0  0  0  0  0
  107.2433  -68.1930  -10.9967 H   0  0  0  0  0  0  0  0  0  0  0  0
  108.8284  -68.5784  -10.2447 H   0  0  0  0  0  0  0  0  0  0  0  0
  107.3338  -64.6765   -7.1590 H   0  0  0  0  0  0  0  0  0  0  0  0
  106.8760  -67.2290   -7.3758 H   0  0  0  0  0  0  0  0  0  0  0  0
  1 28  1  0  0  0  0
  1 30  1  0  0  0  0
  2  3  1  0  0  0  0
  2 31  1  0  0  0  0
  3  4  1  0  0  0  0
  3 19  2  0  0  0  0
  4 14  1  0  0  0  0
  4 32  1  0  0  0  0
  4 33  1  0  0  0  0
  5 15  1  0  0  0  0
  5 34  1  0  0  0  0
  5 35  1  0  0  0  0
  6  7  2  0  0  0  0
  6 17  1  0  0  0  0
  7  8  1  0  0  0  0
  7 36  1  0  0  0  0
  8 18  2  0  0  0  0
  8 37  1  0  0  0  0
  9 18  1  0  0  0  0
  9 38  1  0  0  0  0
 10 12  1  0  0  0  0
 10 39  1  0  0  0  0
 10 40  1  0  0  0  0
 12 11  1  0  0  0  0
 12 13  2  0  0  0  0
 14  5  1  0  0  0  0
 14 10  1  0  0  0  0
 14 41  1  6  0  0  0
 15 16  1  0  0  0  0
 15 42  1  0  0  0  0
 15 43  1  0  0  0  0
 16  6  1  0  0  0  0
 16 44  1  0  0  0  0
 16 45  1  0  0  0  0
 17  9  2  0  0  0  0
 17 46  1  0  0  0  0
 18 47  1  0  0  0  0
 20  2  1  0  0  0  0
 20 21  1  0  0  0  0
 20 48  1  6  0  0  0
 21 22  2  0  0  0  0
 21 23  1  0  0  0  0
 23 24  1  0  0  0  0
 24 49  1  0  0  0  0
 24 50  1  0  0  0  0
 24 51  1  0  0  0  0
 25 20  1  0  0  0  0
 25 52  1  0  0  0  0
 25 53  1  0  0  0  0
 26 25  1  0  0  0  0
 26 27  1  0  0  0  0
 26 29  2  0  0  0  0
 27  1  2  0  0  0  0
 28 29  1  0  0  0  0
 28 54  1  0  0  0  0
 29 55  1  0  0  0  0
M  CHG  2  11  -1  14   1
M  END
