4dxg_ligand
 OpenBabel08222323353D

107110  0  0  1  0  0  0  0  0999 V2000
  -12.2810  -23.6900   22.7400 C   0  0  0  0  0  0  0  0  0  0  0  0
  -13.3160  -24.5740   23.4700 C   0  0  1  0  0  0  0  0  0  0  0  0
  -12.8440  -26.0370   23.4110 C   0  0  0  0  0  0  0  0  0  0  0  0
  -11.6560  -26.3200   24.3400 C   0  0  1  0  0  0  0  0  0  0  0  0
  -11.8650  -25.7830   25.7670 C   0  0  2  0  0  0  0  0  0  0  0  0
  -12.3390  -24.3310   25.6730 C   0  0  2  0  0  0  0  0  0  0  0  0
  -12.6660  -23.6710   27.0150 C   0  0  1  0  0  0  0  0  0  0  0  0
  -13.2410  -22.2800   26.7960 C   0  0  1  0  0  0  0  0  0  0  0  0
  -13.3040  -21.4520   28.0920 C   0  0  0  0  0  0  0  0  0  0  0  0
  -10.3170  -26.5690   27.5640 C   0  0  0  0  0  0  0  0  0  0  0  0
   -8.9070  -26.4770   28.0370 C   0  0  0  0  0  0  0  0  0  0  0  0
  -10.5720  -25.8630   26.4550 N   0  0  0  0  0  0  0  0  0  0  0  0
  -11.7570  -24.1400   21.6750 O   0  5  0  0  0  0  0  0  0  0  0  0
  -12.0170  -22.5440   23.2050 O   0  0  0  0  0  0  0  0  0  0  0  0
  -11.3680  -27.7270   24.4740 O   0  0  0  0  0  0  0  0  0  0  0  0
  -13.5240  -24.2720   24.8540 O   0  0  0  0  0  0  0  0  0  0  0  0
  -13.6800  -24.4290   27.6390 O   0  0  0  0  0  0  0  0  0  0  0  0
  -12.4300  -21.6490   25.7830 O   0  0  0  0  0  0  0  0  0  0  0  0
  -13.7700  -20.1240   27.7720 O   0  0  0  0  0  0  0  0  0  0  0  0
  -11.1520  -27.2280   28.1770 O   0  0  0  0  0  0  0  0  0  0  0  0
  -21.0410  -19.7200   26.3370 C   0  0  2  0  0  0  0  0  0  0  0  0
  -21.1000  -19.4770   24.8300 C   0  0  1  0  0  0  0  0  0  0  0  0
  -20.4020  -20.6080   24.0200 C   0  0  2  0  0  0  0  0  0  0  0  0
  -19.0030  -20.9610   24.5390 C   0  0  1  0  0  0  0  0  0  0  0  0
  -19.0740  -21.2000   26.0460 C   0  0  1  0  0  0  0  0  0  0  0  0
  -17.6740  -21.5840   26.5520 C   0  0  0  0  0  0  0  0  0  0  0  0
  -22.9400  -18.0630   23.9170 C   0  0  0  0  0  0  0  0  0  0  0  0
  -24.3410  -18.0270   23.3250 C   0  0  0  0  0  0  0  0  0  0  0  0
  -19.7070  -20.1180   26.7490 O   0  0  0  0  0  0  0  0  0  0  0  0
  -20.1620  -20.2100   22.6870 O   0  0  0  0  0  0  0  0  0  0  0  0
  -18.4960  -22.1270   23.8570 O   0  0  0  0  0  0  0  0  0  0  0  0
  -17.5320  -21.3400   27.9260 O   0  0  0  0  0  0  0  0  0  0  0  0
  -22.3420  -16.9960   24.0740 O   0  0  0  0  0  0  0  0  0  0  0  0
  -22.4380  -19.2550   24.2830 N   0  0  0  0  0  0  0  0  0  0  0  0
  -21.9490  -20.7370   26.6980 O   0  0  0  0  0  0  0  0  0  0  0  0
  -17.1260  -21.8970   23.4290 C   0  0  1  0  0  0  0  0  0  0  0  0
  -16.5200  -23.2770   23.2890 C   0  0  1  0  0  0  0  0  0  0  0  0
  -15.0980  -23.1870   22.8180 C   0  0  2  0  0  0  0  0  0  0  0  0
  -15.0410  -22.4230   21.4820 C   0  0  2  0  0  0  0  0  0  0  0  0
  -15.6720  -21.0430   21.6940 C   0  0  1  0  0  0  0  0  0  0  0  0
  -15.7800  -20.3680   20.3500 C   0  0  0  0  0  0  0  0  0  0  0  0
  -16.5070  -23.8710   24.5450 O   0  0  0  0  0  0  0  0  0  0  0  0
  -14.5830  -24.4960   22.7590 O   0  0  0  0  0  0  0  0  0  0  0  0
  -15.7310  -23.1090   20.4240 O   0  0  0  0  0  0  0  0  0  0  0  0
  -16.9890  -21.1600   22.2200 O   0  0  0  0  0  0  0  0  0  0  0  0
  -16.3050  -19.0670   20.5350 O   0  0  0  0  0  0  0  0  0  0  0  0
  -21.1040  -20.7100   21.7360 C   0  0  1  0  0  0  0  0  0  0  0  0
  -21.0070  -19.8270   20.5000 C   0  0  2  0  0  0  0  0  0  0  0  0
  -19.7900  -20.1120   19.6870 C   0  0  1  0  0  0  0  0  0  0  0  0
  -19.7480  -21.5700   19.3470 C   0  0  1  0  0  0  0  0  0  0  0  0
  -19.7800  -22.3830   20.6550 C   0  0  2  0  0  0  0  0  0  0  0  0
  -19.7640  -23.8920   20.5170 C   0  0  0  0  0  0  0  0  0  0  0  0
  -20.8780  -18.4670   20.8370 O   0  0  0  0  0  0  0  0  0  0  0  0
  -19.9490  -19.3360   18.5200 O   0  0  0  0  0  0  0  0  0  0  0  0
  -20.8630  -21.7420   18.4540 O   0  0  0  0  0  0  0  0  0  0  0  0
  -20.9460  -22.0850   21.3980 O   0  0  0  0  0  0  0  0  0  0  0  0
  -12.5442  -26.2675   22.3781 H   0  0  0  0  0  0  0  0  0  0  0  0
  -13.6811  -26.6878   23.7038 H   0  0  0  0  0  0  0  0  0  0  0  0
  -10.7765  -25.8229   23.9048 H   0  0  0  0  0  0  0  0  0  0  0  0
  -12.6143  -26.3864   26.3004 H   0  0  0  0  0  0  0  0  0  0  0  0
  -11.5391  -23.7479   25.1933 H   0  0  0  0  0  0  0  0  0  0  0  0
  -11.7654  -23.6220   27.6446 H   0  0  0  0  0  0  0  0  0  0  0  0
  -14.2681  -22.3797   26.4151 H   0  0  0  0  0  0  0  0  0  0  0  0
  -12.3024  -21.3938   28.5429 H   0  0  0  0  0  0  0  0  0  0  0  0
  -13.9983  -21.9268   28.8009 H   0  0  0  0  0  0  0  0  0  0  0  0
   -8.7853  -27.0828   28.9471 H   0  0  0  0  0  0  0  0  0  0  0  0
   -8.6626  -25.4279   28.2596 H   0  0  0  0  0  0  0  0  0  0  0  0
   -8.2322  -26.8525   27.2537 H   0  0  0  0  0  0  0  0  0  0  0  0
   -9.8134  -25.3442   26.0608 H   0  0  0  0  0  0  0  0  0  0  0  0
  -10.5845  -27.8401   24.9993 H   0  0  0  0  0  0  0  0  0  0  0  0
  -14.4429  -24.4612   27.0739 H   0  0  0  0  0  0  0  0  0  0  0  0
  -12.4192  -22.1923   25.0037 H   0  0  0  0  0  0  0  0  0  0  0  0
  -13.8124  -19.6045   28.5663 H   0  0  0  0  0  0  0  0  0  0  0  0
  -21.3140  -18.7896   26.8565 H   0  0  0  0  0  0  0  0  0  0  0  0
  -20.5316  -18.5523   24.6515 H   0  0  0  0  0  0  0  0  0  0  0  0
  -21.0462  -21.4993   24.0438 H   0  0  0  0  0  0  0  0  0  0  0  0
  -18.3251  -20.1169   24.3440 H   0  0  0  0  0  0  0  0  0  0  0  0
  -19.7171  -22.0781   26.2048 H   0  0  0  0  0  0  0  0  0  0  0  0
  -16.9236  -20.9934   26.0061 H   0  0  0  0  0  0  0  0  0  0  0  0
  -17.5077  -22.6545   26.3614 H   0  0  0  0  0  0  0  0  0  0  0  0
  -24.7340  -19.0517   23.2504 H   0  0  0  0  0  0  0  0  0  0  0  0
  -24.3042  -17.5746   22.3230 H   0  0  0  0  0  0  0  0  0  0  0  0
  -24.9979  -17.4287   23.9735 H   0  0  0  0  0  0  0  0  0  0  0  0
  -17.6690  -20.4158   28.0982 H   0  0  0  0  0  0  0  0  0  0  0  0
  -23.0275  -20.0552   24.1722 H   0  0  0  0  0  0  0  0  0  0  0  0
  -22.8259  -20.4860   26.4324 H   0  0  0  0  0  0  0  0  0  0  0  0
  -16.5986  -21.3415   24.2185 H   0  0  0  0  0  0  0  0  0  0  0  0
  -17.1134  -23.8772   22.5836 H   0  0  0  0  0  0  0  0  0  0  0  0
  -14.5100  -22.6200   23.5547 H   0  0  0  0  0  0  0  0  0  0  0  0
  -13.9877  -22.3011   21.1893 H   0  0  0  0  0  0  0  0  0  0  0  0
  -15.0471  -20.4477   22.3760 H   0  0  0  0  0  0  0  0  0  0  0  0
  -16.4496  -20.9477   19.6977 H   0  0  0  0  0  0  0  0  0  0  0  0
  -14.7840  -20.3026   19.8878 H   0  0  0  0  0  0  0  0  0  0  0  0
  -16.1227  -24.7374   24.4804 H   0  0  0  0  0  0  0  0  0  0  0  0
  -15.3385  -23.9643   20.2939 H   0  0  0  0  0  0  0  0  0  0  0  0
  -16.3769  -18.6331   19.6930 H   0  0  0  0  0  0  0  0  0  0  0  0
  -22.1093  -20.5982   22.1683 H   0  0  0  0  0  0  0  0  0  0  0  0
  -21.9099  -19.9816   19.8910 H   0  0  0  0  0  0  0  0  0  0  0  0
  -18.8757  -19.8256   20.2274 H   0  0  0  0  0  0  0  0  0  0  0  0
  -18.8188  -21.8182   18.8131 H   0  0  0  0  0  0  0  0  0  0  0  0
  -18.8953  -22.0871   21.2379 H   0  0  0  0  0  0  0  0  0  0  0  0
  -19.7897  -24.3518   21.5160 H   0  0  0  0  0  0  0  0  0  0  0  0
  -18.8476  -24.2027   19.9939 H   0  0  0  0  0  0  0  0  0  0  0  0
  -20.6431  -24.2169   19.9411 H   0  0  0  0  0  0  0  0  0  0  0  0
  -20.8469  -17.9467   20.0428 H   0  0  0  0  0  0  0  0  0  0  0  0
  -19.2191  -19.4954   17.9332 H   0  0  0  0  0  0  0  0  0  0  0  0
  -20.7389  -21.1971   17.6857 H   0  0  0  0  0  0  0  0  0  0  0  0
  1 13  1  0  0  0  0
  1 14  2  0  0  0  0
  2  1  1  6  0  0  0
  2  3  1  0  0  0  0
  2 16  1  0  0  0  0
  3  4  1  0  0  0  0
  3 57  1  0  0  0  0
  3 58  1  0  0  0  0
  4  5  1  0  0  0  0
  4 15  1  0  0  0  0
  4 59  1  6  0  0  0
  5 12  1  0  0  0  0
  5 60  1  1  0  0  0
  6  5  1  0  0  0  0
  6  7  1  0  0  0  0
  6 61  1  6  0  0  0
  7  8  1  0  0  0  0
  7 17  1  0  0  0  0
  7 62  1  1  0  0  0
  8  9  1  0  0  0  0
  8 18  1  0  0  0  0
  8 63  1  6  0  0  0
  9 19  1  0  0  0  0
  9 64  1  0  0  0  0
  9 65  1  0  0  0  0
 10 11  1  0  0  0  0
 10 20  2  0  0  0  0
 11 66  1  0  0  0  0
 11 67  1  0  0  0  0
 11 68  1  0  0  0  0
 12 10  1  0  0  0  0
 12 69  1  0  0  0  0
 15 70  1  0  0  0  0
 16  6  1  0  0  0  0
 17 71  1  0  0  0  0
 18 72  1  0  0  0  0
 19 73  1  0  0  0  0
 21 35  1  0  0  0  0
 21 74  1  1  0  0  0
 22 21  1  0  0  0  0
 22 34  1  0  0  0  0
 22 75  1  6  0  0  0
 23 22  1  0  0  0  0
 23 30  1  0  0  0  0
 23 76  1  1  0  0  0
 24 23  1  0  0  0  0
 24 25  1  0  0  0  0
 24 77  1  6  0  0  0
 25 26  1  0  0  0  0
 25 29  1  0  0  0  0
 25 78  1  1  0  0  0
 26 32  1  0  0  0  0
 26 79  1  0  0  0  0
 26 80  1  0  0  0  0
 27 28  1  0  0  0  0
 27 33  2  0  0  0  0
 28 81  1  0  0  0  0
 28 82  1  0  0  0  0
 28 83  1  0  0  0  0
 29 21  1  0  0  0  0
 30 47  1  0  0  0  0
 31 24  1  0  0  0  0
 32 84  1  0  0  0  0
 34 27  1  0  0  0  0
 34 85  1  0  0  0  0
 35 86  1  0  0  0  0
 36 31  1  0  0  0  0
 36 45  1  0  0  0  0
 36 87  1  1  0  0  0
 37 36  1  0  0  0  0
 37 42  1  0  0  0  0
 37 88  1  6  0  0  0
 38 37  1  0  0  0  0
 38 39  1  0  0  0  0
 38 43  1  0  0  0  0
 38 89  1  1  0  0  0
 39 40  1  0  0  0  0
 39 44  1  0  0  0  0
 39 90  1  6  0  0  0
 40 41  1  0  0  0  0
 40 45  1  0  0  0  0
 40 91  1  1  0  0  0
 41 46  1  0  0  0  0
 41 92  1  0  0  0  0
 41 93  1  0  0  0  0
 42 94  1  0  0  0  0
 43  2  1  0  0  0  0
 44 95  1  0  0  0  0
 46 96  1  0  0  0  0
 47 48  1  0  0  0  0
 47 56  1  0  0  0  0
 47 97  1  1  0  0  0
 48 49  1  0  0  0  0
 48 53  1  0  0  0  0
 48 98  1  6  0  0  0
 49 50  1  0  0  0  0
 49 54  1  0  0  0  0
 49 99  1  1  0  0  0
 50 51  1  0  0  0  0
 50 55  1  0  0  0  0
 50100  1  6  0  0  0
 51 52  1  0  0  0  0
 51 56  1  0  0  0  0
 51101  1  1  0  0  0
 52102  1  0  0  0  0
 52103  1  0  0  0  0
 52104  1  0  0  0  0
 53105  1  0  0  0  0
 54106  1  0  0  0  0
 55107  1  0  0  0  0
M  CHG  1  13  -1
M  END
