4e0w_ligand
 OpenBabel08222323353D

 29 29  0  0  1  0  0  0  0  0999 V2000
   -4.3820   30.2990  -14.0720 N   0  3  0  0  0  0  0  0  0  0  0  0
   -4.8380   30.5280  -15.4770 C   0  0  0  0  0  0  0  0  0  0  0  0
   -2.8190   29.2150  -18.6510 C   0  0  0  0  0  0  0  0  0  0  0  0
   -5.2580   29.4440  -18.2750 C   0  0  0  0  0  0  0  0  0  0  0  0
   -2.9540   29.7370  -14.1270 C   0  0  1  0  0  0  0  0  0  0  0  0
   -2.9180   29.0570  -15.5050 C   0  0  1  0  0  0  0  0  0  0  0  0
   -3.6150   27.6820  -15.4730 C   0  0  0  0  0  0  0  0  0  0  0  0
   -3.6760   30.0870  -16.3860 C   0  0  1  0  0  0  0  0  0  0  0  0
   -2.8200   26.5310  -14.8680 C   0  0  0  0  0  0  0  0  0  0  0  0
   -4.0090   29.5850  -17.7900 C   0  0  0  0  0  0  0  0  0  0  0  0
   -1.8590   30.8510  -13.9620 C   0  0  0  0  0  0  0  0  0  0  0  0
   -2.3120   31.9300  -13.4680 O   0  5  0  0  0  0  0  0  0  0  0  0
   -3.5350   25.5870  -14.4050 O   0  5  0  0  0  0  0  0  0  0  0  0
   -1.5550   26.6120  -14.8650 O   0  0  0  0  0  0  0  0  0  0  0  0
   -0.6780   30.6080  -14.3200 O   0  0  0  0  0  0  0  0  0  0  0  0
   -4.9928   29.6390  -13.6166 H   0  0  0  0  0  0  0  0  0  0  0  0
   -4.3885   31.1692  -13.5633 H   0  0  0  0  0  0  0  0  0  0  0  0
   -5.0626   31.5931  -15.6357 H   0  0  0  0  0  0  0  0  0  0  0  0
   -5.7356   29.9285  -15.6886 H   0  0  0  0  0  0  0  0  0  0  0  0
   -3.1711   28.8689  -19.6339 H   0  0  0  0  0  0  0  0  0  0  0  0
   -2.2484   28.4116  -18.1622 H   0  0  0  0  0  0  0  0  0  0  0  0
   -2.1733   30.0958  -18.7822 H   0  0  0  0  0  0  0  0  0  0  0  0
   -6.1150   29.7094  -17.6577 H   0  0  0  0  0  0  0  0  0  0  0  0
   -5.4106   29.0646  -19.2843 H   0  0  0  0  0  0  0  0  0  0  0  0
   -2.8074   28.9911  -13.3320 H   0  0  0  0  0  0  0  0  0  0  0  0
   -1.8837   28.9264  -15.8559 H   0  0  0  0  0  0  0  0  0  0  0  0
   -3.8629   27.4087  -16.5092 H   0  0  0  0  0  0  0  0  0  0  0  0
   -4.5418   27.7905  -14.8906 H   0  0  0  0  0  0  0  0  0  0  0  0
   -3.0238   30.9600  -16.5358 H   0  0  0  0  0  0  0  0  0  0  0  0
  1 16  1  0  0  0  0
  1 17  1  0  0  0  0
  2  1  1  0  0  0  0
  2 18  1  0  0  0  0
  2 19  1  0  0  0  0
  3 20  1  0  0  0  0
  3 21  1  0  0  0  0
  3 22  1  0  0  0  0
  4 23  1  0  0  0  0
  4 24  1  0  0  0  0
  5  1  1  0  0  0  0
  5 11  1  0  0  0  0
  5 25  1  1  0  0  0
  6  5  1  0  0  0  0
  6  7  1  0  0  0  0
  6 26  1  6  0  0  0
  7  9  1  0  0  0  0
  7 27  1  0  0  0  0
  7 28  1  0  0  0  0
  8  2  1  0  0  0  0
  8  6  1  0  0  0  0
  8 10  1  0  0  0  0
  8 29  1  6  0  0  0
  9 13  1  0  0  0  0
  9 14  2  0  0  0  0
 10  3  1  0  0  0  0
 10  4  2  0  0  0  0
 11 12  1  0  0  0  0
 11 15  2  0  0  0  0
M  CHG  3   1   1  12  -1  13  -1
M  END
