4e1e_ligand
 OpenBabel08222323353D

 35 34  0  0  0  0  0  0  0  0999 V2000
  -14.6310  -14.4680  -21.0800 O   0  0  0  0  0  1  0  0  0  0  0  0
  -13.4190  -14.7250  -20.2120 P   0  0  0  0  0  0  0  0  0  0  0  0
  -13.5930  -14.2890  -18.7760 O   0  0  0  0  0  1  0  0  0  0  0  0
  -12.1350  -14.2480  -20.8480 O   0  0  0  0  0  0  0  0  0  0  0  0
  -13.3180  -16.5370  -20.2180 C   0  0  0  0  0  0  0  0  0  0  0  0
  -14.3050  -17.1600  -18.8170 P   0  0  0  0  0  0  0  0  0  0  0  0
  -13.9540  -16.3400  -17.6190 O   0  0  0  0  0  1  0  0  0  0  0  0
  -15.6960  -16.9050  -19.3320 O   0  0  0  0  0  1  0  0  0  0  0  0
  -13.9430  -18.6090  -18.6220 O   0  0  0  0  0  0  0  0  0  0  0  0
  -11.8620  -17.0010  -20.2220 C   0  0  0  0  0  0  0  0  0  0  0  0
  -11.7030  -18.4570  -20.0460 N   0  3  0  0  0  0  0  0  0  0  0  0
  -11.5560  -19.1380  -21.3420 C   0  0  0  0  0  0  0  0  0  0  0  0
  -12.3340  -20.4480  -21.2840 C   0  0  0  0  0  0  0  0  0  0  0  0
  -11.6880  -21.5400  -22.1300 C   0  0  0  0  0  0  0  0  0  0  0  0
  -12.4300  -21.6140  -23.4540 C   0  0  0  0  0  0  0  0  0  0  0  0
  -12.3870  -23.0030  -24.0760 C   0  0  0  0  0  0  0  0  0  0  0  0
  -13.2720  -23.0310  -25.3020 C   0  0  0  0  0  0  0  0  0  0  0  0
  -13.7798  -16.9085  -21.1447 H   0  0  0  0  0  0  0  0  0  0  0  0
  -11.3332  -16.4924  -19.4024 H   0  0  0  0  0  0  0  0  0  0  0  0
  -11.4093  -16.7160  -21.1832 H   0  0  0  0  0  0  0  0  0  0  0  0
  -12.5154  -18.8215  -19.5736 H   0  0  0  0  0  0  0  0  0  0  0  0
  -10.8825  -18.6328  -19.4876 H   0  0  0  0  0  0  0  0  0  0  0  0
  -10.4931  -19.3447  -21.5354 H   0  0  0  0  0  0  0  0  0  0  0  0
  -11.9577  -18.5018  -22.1444 H   0  0  0  0  0  0  0  0  0  0  0  0
  -13.3546  -20.2705  -21.6540 H   0  0  0  0  0  0  0  0  0  0  0  0
  -12.3769  -20.7885  -20.2389 H   0  0  0  0  0  0  0  0  0  0  0  0
  -11.7587  -22.5061  -21.6088 H   0  0  0  0  0  0  0  0  0  0  0  0
  -10.6303  -21.2963  -22.3087 H   0  0  0  0  0  0  0  0  0  0  0  0
  -11.9714  -20.9006  -24.1546 H   0  0  0  0  0  0  0  0  0  0  0  0
  -13.4809  -21.3371  -23.2842 H   0  0  0  0  0  0  0  0  0  0  0  0
  -12.7470  -23.7433  -23.3464 H   0  0  0  0  0  0  0  0  0  0  0  0
  -11.3532  -23.2445  -24.3639 H   0  0  0  0  0  0  0  0  0  0  0  0
  -13.2422  -24.0339  -25.7528 H   0  0  0  0  0  0  0  0  0  0  0  0
  -12.9119  -22.2904  -26.0312 H   0  0  0  0  0  0  0  0  0  0  0  0
  -14.3056  -22.7892  -25.0137 H   0  0  0  0  0  0  0  0  0  0  0  0
  1  2  1  0  0  0  0
  2  3  1  0  0  0  0
  2  4  2  0  0  0  0
  2  5  1  0  0  0  0
  5  6  1  0  0  0  0
  5 10  1  0  0  0  0
  5 18  1  0  0  0  0
  6  7  1  0  0  0  0
  6  8  1  0  0  0  0
  6  9  2  0  0  0  0
 10 11  1  0  0  0  0
 10 19  1  0  0  0  0
 10 20  1  0  0  0  0
 11 12  1  0  0  0  0
 11 21  1  0  0  0  0
 11 22  1  0  0  0  0
 12 13  1  0  0  0  0
 12 23  1  0  0  0  0
 12 24  1  0  0  0  0
 13 14  1  0  0  0  0
 13 25  1  0  0  0  0
 13 26  1  0  0  0  0
 14 15  1  0  0  0  0
 14 27  1  0  0  0  0
 14 28  1  0  0  0  0
 15 16  1  0  0  0  0
 15 29  1  0  0  0  0
 15 30  1  0  0  0  0
 16 17  1  0  0  0  0
 16 31  1  0  0  0  0
 16 32  1  0  0  0  0
 17 33  1  0  0  0  0
 17 34  1  0  0  0  0
 17 35  1  0  0  0  0
M  CHG  1  11   1
M  END
