4e1z_ligand
 OpenBabel08222323353D

 51 55  0  0  0  0  0  0  0  0999 V2000
   31.9500  -13.6710   27.3340 C   0  0  0  0  0  0  0  0  0  0  0  0
   30.4020  -17.4520   28.0310 N   0  0  0  0  0  0  0  0  0  0  0  0
   35.4980   -7.9940   27.8920 O   0  0  0  0  0  0  0  0  0  0  0  0
   34.8510   -7.5930   26.6580 S   0  0  0  0  0  0  0  0  0  0  0  0
   30.5300   -7.2960   29.4990 Cl  0  0  0  0  0  0  0  0  0  0  0  0
   30.5800  -13.8630   27.0530 C   0  0  0  0  0  0  0  0  0  0  0  0
   31.5440  -18.1480   28.4480 N   0  0  0  0  0  0  0  0  0  0  0  0
   35.6770   -6.6130   26.0050 O   0  0  0  0  0  0  0  0  0  0  0  0
   29.9650  -15.1050   27.2710 C   0  0  0  0  0  0  0  0  0  0  0  0
   33.8030  -17.7590   28.8160 N   0  0  0  0  0  0  0  0  0  0  0  0
   35.1350  -15.9610   28.6480 O   0  0  0  0  0  0  0  0  0  0  0  0
   32.7150  -14.7810   27.7460 C   0  0  0  0  0  0  0  0  0  0  0  0
   34.6140   -8.8960   25.7370 N   0  0  0  0  0  0  0  0  0  0  0  0
   36.3200  -19.0940   29.1090 O   0  0  0  0  0  0  0  0  0  0  0  0
   32.1130  -16.0300   27.9680 C   0  0  0  0  0  0  0  0  0  0  0  0
   30.7370  -16.1840   27.7360 C   0  0  0  0  0  0  0  0  0  0  0  0
   32.5670  -17.2900   28.4030 C   0  0  0  0  0  0  0  0  0  0  0  0
   32.6670  -12.3910   27.0070 C   0  0  0  0  0  0  0  0  0  0  0  0
   32.1520  -11.5850   25.9740 C   0  0  0  0  0  0  0  0  0  0  0  0
   32.7900  -10.4140   25.5600 C   0  0  0  0  0  0  0  0  0  0  0  0
   33.9940  -10.0370   26.1590 C   0  0  0  0  0  0  0  0  0  0  0  0
   34.5360  -10.8550   27.1760 C   0  0  0  0  0  0  0  0  0  0  0  0
   33.8920  -12.0250   27.5920 C   0  0  0  0  0  0  0  0  0  0  0  0
   33.3810   -6.9770   26.9380 C   0  0  0  0  0  0  0  0  0  0  0  0
   32.8110   -6.0730   26.0300 C   0  0  0  0  0  0  0  0  0  0  0  0
   31.5210   -5.5730   26.2460 C   0  0  0  0  0  0  0  0  0  0  0  0
   30.7930   -5.9640   27.3660 C   0  0  0  0  0  0  0  0  0  0  0  0
   31.3470   -6.8490   28.2950 C   0  0  0  0  0  0  0  0  0  0  0  0
   32.6260   -7.3780   28.0580 C   0  0  0  0  0  0  0  0  0  0  0  0
   34.9980  -17.1330   28.9060 C   0  0  0  0  0  0  0  0  0  0  0  0
   36.3030  -17.8280   29.1900 C   0  0  0  0  0  0  0  0  0  0  0  0
   37.7150  -19.5290   29.3340 C   0  0  0  0  0  0  0  0  0  0  0  0
   38.4440  -18.3630   29.4770 C   0  0  0  0  0  0  0  0  0  0  0  0
   37.5790  -17.2970   29.3580 C   0  0  0  0  0  0  0  0  0  0  0  0
   29.9944  -13.0384   26.6629 H   0  0  0  0  0  0  0  0  0  0  0  0
   31.5869  -19.1362   28.7354 H   0  0  0  0  0  0  0  0  0  0  0  0
   28.9050  -15.2314   27.0827 H   0  0  0  0  0  0  0  0  0  0  0  0
   33.8133  -18.7197   29.0936 H   0  0  0  0  0  0  0  0  0  0  0  0
   33.7830  -14.6688   27.8935 H   0  0  0  0  0  0  0  0  0  0  0  0
   34.9434   -8.8661   24.7933 H   0  0  0  0  0  0  0  0  0  0  0  0
   31.2316  -11.8827   25.4848 H   0  0  0  0  0  0  0  0  0  0  0  0
   32.3538   -9.8017   24.7790 H   0  0  0  0  0  0  0  0  0  0  0  0
   35.4712  -10.5695   27.6439 H   0  0  0  0  0  0  0  0  0  0  0  0
   34.3352  -12.6465   28.3617 H   0  0  0  0  0  0  0  0  0  0  0  0
   33.3717   -5.7598   25.1567 H   0  0  0  0  0  0  0  0  0  0  0  0
   31.0869   -4.8775   25.5369 H   0  0  0  0  0  0  0  0  0  0  0  0
   29.7908   -5.5800   27.5185 H   0  0  0  0  0  0  0  0  0  0  0  0
   33.0387   -8.1059   28.7471 H   0  0  0  0  0  0  0  0  0  0  0  0
   38.0889  -20.5509   29.3778 H   0  0  0  0  0  0  0  0  0  0  0  0
   39.5167  -18.2982   29.6533 H   0  0  0  0  0  0  0  0  0  0  0  0
   37.8430  -16.2409   29.3894 H   0  0  0  0  0  0  0  0  0  0  0  0
  1  6  1  0  0  0  0
  1 18  1  0  0  0  0
  4  3  2  0  0  0  0
  4  8  2  0  0  0  0
  4 24  1  0  0  0  0
  6 35  1  0  0  0  0
  7  2  1  0  0  0  0
  7 36  1  0  0  0  0
  9  6  2  0  0  0  0
  9 37  1  0  0  0  0
 10 17  1  0  0  0  0
 10 38  1  0  0  0  0
 12  1  2  0  0  0  0
 12 39  1  0  0  0  0
 13  4  1  0  0  0  0
 13 40  1  0  0  0  0
 14 32  1  0  0  0  0
 15 12  1  0  0  0  0
 15 16  1  0  0  0  0
 16  2  2  0  0  0  0
 16  9  1  0  0  0  0
 17  7  1  0  0  0  0
 17 15  2  0  0  0  0
 18 19  2  0  0  0  0
 18 23  1  0  0  0  0
 19 20  1  0  0  0  0
 19 41  1  0  0  0  0
 20 21  2  0  0  0  0
 20 42  1  0  0  0  0
 21 13  1  0  0  0  0
 22 21  1  0  0  0  0
 22 43  1  0  0  0  0
 23 22  2  0  0  0  0
 23 44  1  0  0  0  0
 24 25  2  0  0  0  0
 24 29  1  0  0  0  0
 25 26  1  0  0  0  0
 25 45  1  0  0  0  0
 26 27  2  0  0  0  0
 26 46  1  0  0  0  0
 27 47  1  0  0  0  0
 28  5  1  0  0  0  0
 28 27  1  0  0  0  0
 29 28  2  0  0  0  0
 29 48  1  0  0  0  0
 30 10  1  0  0  0  0
 30 11  2  0  0  0  0
 30 31  1  0  0  0  0
 31 14  1  0  0  0  0
 31 34  2  0  0  0  0
 32 33  2  0  0  0  0
 32 49  1  0  0  0  0
 33 34  1  0  0  0  0
 33 50  1  0  0  0  0
 34 51  1  0  0  0  0
M  END
