4e35_ligand
 OpenBabel08222323353D

128130  0  0  1  0  0  0  0  0999 V2000
   40.6910   18.7210   34.1440 N   0  3  0  0  0  0  0  0  0  0  0  0
   40.1540   19.9510   33.5680 C   0  0  2  0  0  0  0  0  0  0  0  0
   38.7300   19.7680   33.0520 C   0  0  0  0  0  0  0  0  0  0  0  0
   38.4370   18.8230   32.3110 O   0  0  0  0  0  0  0  0  0  0  0  0
   41.0580   20.4610   32.4430 C   0  0  0  0  0  0  0  0  0  0  0  0
   40.4780   21.6310   31.6610 C   0  0  0  0  0  0  0  0  0  0  0  0
   41.4760   22.7710   31.5610 C   0  0  0  0  0  0  0  0  0  0  0  0
   41.7510   23.3580   32.8690 N   0  0  0  0  0  0  0  0  0  0  0  0
   42.7720   24.1690   33.1260 C   0  0  0  0  0  3  0  0  0  0  0  0
   42.9420   24.6570   34.3470 N   0  0  0  0  0  0  0  0  0  0  0  0
   43.6270   24.4880   32.1630 N   0  0  0  0  0  0  0  0  0  0  0  0
   37.8520   20.6880   33.4450 N   0  0  0  0  0  0  0  0  0  0  0  0
   36.4470   20.6320   33.0600 C   0  0  2  0  0  0  0  0  0  0  0  0
   36.2080   21.4270   31.7810 C   0  0  0  0  0  0  0  0  0  0  0  0
   36.9550   22.3480   31.4590 O   0  0  0  0  0  0  0  0  0  0  0  0
   35.5470   21.1990   34.1630 C   0  0  0  0  0  0  0  0  0  0  0  0
   35.7830   20.6230   35.5280 C   0  0  0  0  0  0  0  0  0  0  0  0
   36.3340   19.4070   35.8300 C   0  0  0  0  0  0  0  0  0  0  0  0
   35.4750   21.2470   36.7790 C   0  0  0  0  0  0  0  0  0  0  0  0
   36.3850   19.2410   37.1950 N   0  0  0  0  0  0  0  0  0  0  0  0
   35.8690   20.3550   37.8000 C   0  0  0  0  0  0  0  0  0  0  0  0
   34.9110   22.4740   37.1380 C   0  0  0  0  0  0  0  0  0  0  0  0
   35.7080   20.6540   39.1530 C   0  0  0  0  0  0  0  0  0  0  0  0
   34.7550   22.7700   38.4780 C   0  0  0  0  0  0  0  0  0  0  0  0
   35.1520   21.8630   39.4700 C   0  0  0  0  0  0  0  0  0  0  0  0
   35.1580   21.0650   31.0460 N   0  0  0  0  0  0  0  0  0  0  0  0
   34.7300   21.8360   29.8820 C   0  0  2  0  0  0  0  0  0  0  0  0
   33.9360   23.0750   30.3010 C   0  0  0  0  0  0  0  0  0  0  0  0
   33.3460   23.1230   31.3910 O   0  0  0  0  0  0  0  0  0  0  0  0
   33.8020   20.8610   29.1550 C   0  0  0  0  0  0  0  0  0  0  0  0
   33.1920   20.0750   30.2580 C   0  0  0  0  0  0  0  0  0  0  0  0
   34.3250   19.8640   31.2370 C   0  0  0  0  0  0  0  0  0  0  0  0
   33.9350   24.0680   29.4230 N   0  0  0  0  0  0  0  0  0  0  0  0
   33.1060   25.2450   29.5840 C   0  0  2  0  0  0  0  0  0  0  0  0
   32.2780   25.4200   28.3260 C   0  0  0  0  0  0  0  0  0  0  0  0
   32.7880   25.2470   27.2210 O   0  0  0  0  0  0  0  0  0  0  0  0
   33.9710   26.4860   29.7720 C   0  0  2  0  0  0  0  0  0  0  0  0
   34.6990   26.3640   30.9960 O   0  0  0  0  0  0  0  0  0  0  0  0
   33.1040   27.7450   29.8120 C   0  0  0  0  0  0  0  0  0  0  0  0
   31.0010   25.7620   28.4900 N   0  0  0  0  0  0  0  0  0  0  0  0
   30.1430   26.0870   27.3570 C   0  0  2  0  0  0  0  0  0  0  0  0
   29.5330   27.4690   27.5570 C   0  0  0  0  0  0  0  0  0  0  0  0
   29.1110   27.8160   28.6630 O   0  0  0  0  0  0  0  0  0  0  0  0
   29.0080   25.0660   27.2100 C   0  0  0  0  0  0  0  0  0  0  0  0
   29.5050   23.7710   26.9050 O   0  0  0  0  0  0  0  0  0  0  0  0
   29.5000   28.2590   26.4920 N   0  0  0  0  0  0  0  0  0  0  0  0
   28.8160   29.5450   26.4890 C   0  0  2  0  0  0  0  0  0  0  0  0
   27.3810   29.3090   26.0160 C   0  0  0  0  0  0  0  0  0  0  0  0
   27.1660   28.6190   25.0160 O   0  0  0  0  0  0  0  0  0  0  0  0
   29.5450   30.5530   25.5640 C   0  0  2  0  0  0  0  0  0  0  0  0
   30.9860   30.7680   26.0320 C   0  0  0  0  0  0  0  0  0  0  0  0
   28.8010   31.8750   25.5120 C   0  0  0  0  0  0  0  0  0  0  0  0
   31.8610   31.4480   24.9900 C   0  0  0  0  0  0  0  0  0  0  0  0
   26.4100   29.8950   26.7130 N   0  0  0  0  0  0  0  0  0  0  0  0
   24.9880   29.5860   26.5350 C   0  0  2  0  0  0  0  0  0  0  0  0
   24.1470   30.8260   26.6020 C   0  0  0  0  0  0  0  0  0  0  0  0
   24.5810   31.8470   27.1320 O   0  5  0  0  0  0  0  0  0  0  0  0
   24.4610   28.7180   27.6890 C   0  0  0  0  0  0  0  0  0  0  0  0
   25.0850   27.3920   28.0680 C   0  0  0  0  0  0  0  0  0  0  0  0
   24.3400   26.8010   29.2660 C   0  0  0  0  0  0  0  0  0  0  0  0
   25.0170   26.4570   26.8660 C   0  0  0  0  0  0  0  0  0  0  0  0
   22.9920   30.7760   26.1890 O   0  0  0  0  0  0  0  0  0  0  0  0
   41.6301   18.8854   34.4714 H   0  0  0  0  0  0  0  0  0  0  0  0
   40.7018   17.9979   33.4418 H   0  0  0  0  0  0  0  0  0  0  0  0
   40.1119   18.4308   34.9163 H   0  0  0  0  0  0  0  0  0  0  0  0
   40.1312   20.7120   34.3619 H   0  0  0  0  0  0  0  0  0  0  0  0
   41.2379   19.6325   31.7421 H   0  0  0  0  0  0  0  0  0  0  0  0
   42.0129   20.7809   32.8855 H   0  0  0  0  0  0  0  0  0  0  0  0
   39.5723   21.9904   32.1714 H   0  0  0  0  0  0  0  0  0  0  0  0
   40.2176   21.2918   30.6475 H   0  0  0  0  0  0  0  0  0  0  0  0
   41.0656   23.5483   30.8997 H   0  0  0  0  0  0  0  0  0  0  0  0
   42.4156   22.3873   31.1369 H   0  0  0  0  0  0  0  0  0  0  0  0
   41.1119   23.1286   33.6434 H   0  0  0  0  0  0  0  0  0  0  0  0
   43.7337   25.2854   34.5448 H   0  0  0  0  0  0  0  0  0  0  0  0
   42.2823   24.4077   35.0977 H   0  0  0  0  0  0  0  0  0  0  0  0
   43.4975   24.1104   31.2135 H   0  0  0  0  0  0  0  0  0  0  0  0
   44.4203   25.1132   32.3649 H   0  0  0  0  0  0  0  0  0  0  0  0
   38.1661   21.4415   34.0226 H   0  0  0  0  0  0  0  0  0  0  0  0
   36.1753   19.5807   32.8842 H   0  0  0  0  0  0  0  0  0  0  0  0
   34.5009   21.0027   33.8853 H   0  0  0  0  0  0  0  0  0  0  0  0
   35.7146   22.2848   34.2165 H   0  0  0  0  0  0  0  0  0  0  0  0
   36.6807   18.6787   35.0983 H   0  0  0  0  0  0  0  0  0  0  0  0
   36.7524   18.4117   37.6830 H   0  0  0  0  0  0  0  0  0  0  0  0
   34.6011   23.1817   36.3776 H   0  0  0  0  0  0  0  0  0  0  0  0
   36.0119   19.9550   39.9238 H   0  0  0  0  0  0  0  0  0  0  0  0
   34.3185   23.7192   38.7671 H   0  0  0  0  0  0  0  0  0  0  0  0
   35.0153   22.1257   40.5128 H   0  0  0  0  0  0  0  0  0  0  0  0
   35.5863   22.1288   29.2567 H   0  0  0  0  0  0  0  0  0  0  0  0
   34.3709   20.2092   28.4757 H   0  0  0  0  0  0  0  0  0  0  0  0
   33.0321   21.4018   28.5851 H   0  0  0  0  0  0  0  0  0  0  0  0
   32.8133   19.1113   29.8867 H   0  0  0  0  0  0  0  0  0  0  0  0
   32.3703   20.6354   30.7278 H   0  0  0  0  0  0  0  0  0  0  0  0
   33.9493   19.8038   32.2691 H   0  0  0  0  0  0  0  0  0  0  0  0
   34.8886   18.9501   30.9980 H   0  0  0  0  0  0  0  0  0  0  0  0
   34.5280   24.0023   28.6204 H   0  0  0  0  0  0  0  0  0  0  0  0
   32.4470   25.1180   30.4555 H   0  0  0  0  0  0  0  0  0  0  0  0
   34.6783   26.5640   28.9332 H   0  0  0  0  0  0  0  0  0  0  0  0
   35.2500   25.5910   30.9597 H   0  0  0  0  0  0  0  0  0  0  0  0
   33.7458   28.6280   29.9480 H   0  0  0  0  0  0  0  0  0  0  0  0
   32.3943   27.6751   30.6495 H   0  0  0  0  0  0  0  0  0  0  0  0
   32.5483   27.8377   28.8672 H   0  0  0  0  0  0  0  0  0  0  0  0
   30.6210   25.7967   29.4143 H   0  0  0  0  0  0  0  0  0  0  0  0
   30.7493   26.0849   26.4392 H   0  0  0  0  0  0  0  0  0  0  0  0
   28.3383   25.3910   26.4001 H   0  0  0  0  0  0  0  0  0  0  0  0
   28.4457   25.0191   28.1542 H   0  0  0  0  0  0  0  0  0  0  0  0
   30.0807   23.4815   27.6030 H   0  0  0  0  0  0  0  0  0  0  0  0
   29.9632   27.9597   25.6578 H   0  0  0  0  0  0  0  0  0  0  0  0
   28.8000   29.9516   27.5110 H   0  0  0  0  0  0  0  0  0  0  0  0
   29.5706   30.1318   24.5482 H   0  0  0  0  0  0  0  0  0  0  0  0
   31.4253   29.7884   26.2715 H   0  0  0  0  0  0  0  0  0  0  0  0
   30.9698   31.3937   26.9366 H   0  0  0  0  0  0  0  0  0  0  0  0
   27.7686   31.7017   25.1742 H   0  0  0  0  0  0  0  0  0  0  0  0
   29.3075   32.5535   24.8098 H   0  0  0  0  0  0  0  0  0  0  0  0
   28.7876   32.3279   26.5143 H   0  0  0  0  0  0  0  0  0  0  0  0
   32.8784   31.5712   25.3895 H   0  0  0  0  0  0  0  0  0  0  0  0
   31.4410   32.4349   24.7460 H   0  0  0  0  0  0  0  0  0  0  0  0
   31.8965   30.8297   24.0810 H   0  0  0  0  0  0  0  0  0  0  0  0
   26.6639   30.5821   27.3938 H   0  0  0  0  0  0  0  0  0  0  0  0
   24.8475   29.0754   25.5709 H   0  0  0  0  0  0  0  0  0  0  0  0
   23.4089   28.5021   27.4513 H   0  0  0  0  0  0  0  0  0  0  0  0
   24.5118   29.3466   28.5902 H   0  0  0  0  0  0  0  0  0  0  0  0
   26.1383   27.5486   28.3436 H   0  0  0  0  0  0  0  0  0  0  0  0
   24.7938   25.8375   29.5410 H   0  0  0  0  0  0  0  0  0  0  0  0
   23.2837   26.6464   29.0010 H   0  0  0  0  0  0  0  0  0  0  0  0
   24.4068   27.4940   30.1176 H   0  0  0  0  0  0  0  0  0  0  0  0
   25.5596   26.9060   26.0211 H   0  0  0  0  0  0  0  0  0  0  0  0
   23.9657   26.2984   26.5838 H   0  0  0  0  0  0  0  0  0  0  0  0
   25.4766   25.4920   27.1256 H   0  0  0  0  0  0  0  0  0  0  0  0
  1  2  1  0  0  0  0
  1 63  1  0  0  0  0
  1 64  1  0  0  0  0
  1 65  1  0  0  0  0
  2  3  1  0  0  0  0
  2  5  1  0  0  0  0
  2 66  1  1  0  0  0
  3  4  2  0  0  0  0
  3 12  1  0  0  0  0
  5  6  1  0  0  0  0
  5 67  1  0  0  0  0
  5 68  1  0  0  0  0
  6  7  1  0  0  0  0
  6 69  1  0  0  0  0
  6 70  1  0  0  0  0
  7  8  1  0  0  0  0
  7 71  1  0  0  0  0
  7 72  1  0  0  0  0
  8  9  1  0  0  0  0
  8 73  1  0  0  0  0
  9 10  1  0  0  0  0
  9 11  1  0  0  0  0
 10 74  1  0  0  0  0
 10 75  1  0  0  0  0
 11 76  1  0  0  0  0
 11 77  1  0  0  0  0
 12 13  1  0  0  0  0
 12 78  1  0  0  0  0
 13 14  1  0  0  0  0
 13 16  1  0  0  0  0
 13 79  1  6  0  0  0
 14 15  2  0  0  0  0
 14 26  1  0  0  0  0
 16 17  1  0  0  0  0
 16 80  1  0  0  0  0
 16 81  1  0  0  0  0
 17 18  2  0  0  0  0
 17 19  1  0  0  0  0
 18 20  1  0  0  0  0
 18 82  1  0  0  0  0
 19 21  2  0  0  0  0
 19 22  1  0  0  0  0
 20 21  1  0  0  0  0
 20 83  1  0  0  0  0
 21 23  1  0  0  0  0
 22 24  2  0  0  0  0
 22 84  1  0  0  0  0
 23 25  2  0  0  0  0
 23 85  1  0  0  0  0
 24 25  1  0  0  0  0
 24 86  1  0  0  0  0
 25 87  1  0  0  0  0
 26 27  1  0  0  0  0
 26 32  1  0  0  0  0
 27 28  1  0  0  0  0
 27 30  1  0  0  0  0
 27 88  1  6  0  0  0
 28 29  2  0  0  0  0
 28 33  1  0  0  0  0
 30 31  1  0  0  0  0
 30 89  1  0  0  0  0
 30 90  1  0  0  0  0
 31 32  1  0  0  0  0
 31 91  1  0  0  0  0
 31 92  1  0  0  0  0
 32 93  1  0  0  0  0
 32 94  1  0  0  0  0
 33 34  1  0  0  0  0
 33 95  1  0  0  0  0
 34 35  1  0  0  0  0
 34 37  1  0  0  0  0
 34 96  1  1  0  0  0
 35 36  2  0  0  0  0
 35 40  1  0  0  0  0
 37 38  1  0  0  0  0
 37 39  1  0  0  0  0
 37 97  1  6  0  0  0
 38 98  1  0  0  0  0
 39 99  1  0  0  0  0
 39100  1  0  0  0  0
 39101  1  0  0  0  0
 40 41  1  0  0  0  0
 40102  1  0  0  0  0
 41 42  1  0  0  0  0
 41 44  1  0  0  0  0
 41103  1  6  0  0  0
 42 43  2  0  0  0  0
 42 46  1  0  0  0  0
 44 45  1  0  0  0  0
 44104  1  0  0  0  0
 44105  1  0  0  0  0
 45106  1  0  0  0  0
 46 47  1  0  0  0  0
 46107  1  0  0  0  0
 47 48  1  0  0  0  0
 47 50  1  0  0  0  0
 47108  1  1  0  0  0
 48 49  2  0  0  0  0
 48 54  1  0  0  0  0
 50 51  1  0  0  0  0
 50 52  1  0  0  0  0
 50109  1  6  0  0  0
 51 53  1  0  0  0  0
 51110  1  0  0  0  0
 51111  1  0  0  0  0
 52112  1  0  0  0  0
 52113  1  0  0  0  0
 52114  1  0  0  0  0
 53115  1  0  0  0  0
 53116  1  0  0  0  0
 53117  1  0  0  0  0
 54 55  1  0  0  0  0
 54118  1  0  0  0  0
 55 56  1  0  0  0  0
 55 58  1  0  0  0  0
 55119  1  6  0  0  0
 56 57  1  0  0  0  0
 56 62  2  0  0  0  0
 58 59  1  0  0  0  0
 58120  1  0  0  0  0
 58121  1  0  0  0  0
 59 60  1  0  0  0  0
 59 61  1  0  0  0  0
 59122  1  0  0  0  0
 60123  1  0  0  0  0
 60124  1  0  0  0  0
 60125  1  0  0  0  0
 61126  1  0  0  0  0
 61127  1  0  0  0  0
 61128  1  0  0  0  0
M  CHG  2   1   1  57  -1
M  END
