4e3b_ligand
 OpenBabel08222323353D

139141  0  0  1  0  0  0  0  0999 V2000
   -5.2820   18.1630   44.5300 N   0  3  0  0  0  0  0  0  0  0  0  0
   -5.9890   18.7800   45.6500 C   0  0  2  0  0  0  0  0  0  0  0  0
   -5.1280   19.8480   46.3160 C   0  0  0  0  0  0  0  0  0  0  0  0
   -5.4970   21.0190   46.3800 O   0  0  0  0  0  0  0  0  0  0  0  0
   -6.4000   17.7110   46.6680 C   0  0  0  0  0  0  0  0  0  0  0  0
   -7.1500   18.2720   47.7330 O   0  0  0  0  0  0  0  0  0  0  0  0
   -3.9730   19.4270   46.8110 N   0  0  0  0  0  0  0  0  0  0  0  0
   -3.0110   20.3340   47.4200 C   0  0  2  0  0  0  0  0  0  0  0  0
   -1.8580   20.5750   46.4460 C   0  0  0  0  0  0  0  0  0  0  0  0
   -0.8110   21.1020   46.8150 O   0  0  0  0  0  0  0  0  0  0  0  0
   -2.4740   19.7540   48.7290 C   0  0  0  0  0  0  0  0  0  0  0  0
   -3.1690   18.4730   49.1930 C   0  0  0  0  0  0  0  0  0  0  0  0
   -2.6420   17.2350   48.4650 C   0  0  0  0  0  0  0  0  0  0  0  0
   -3.2460   17.0500   47.1470 N   0  0  0  0  0  0  0  0  0  0  0  0
   -2.6330   16.4770   46.1160 C   0  0  0  0  0  3  0  0  0  0  0  0
   -3.2630   16.3490   44.9540 N   0  0  0  0  0  0  0  0  0  0  0  0
   -1.3870   16.0380   46.2450 N   0  0  0  0  0  0  0  0  0  0  0  0
   -2.0600   20.1730   45.1970 N   0  0  0  0  0  0  0  0  0  0  0  0
   -1.0420   20.3280   44.1680 C   0  0  2  0  0  0  0  0  0  0  0  0
   -1.7360   20.5200   42.8290 C   0  0  0  0  0  0  0  0  0  0  0  0
   -2.0160   19.5530   42.1260 O   0  0  0  0  0  0  0  0  0  0  0  0
   -0.1390   19.1000   44.1210 C   0  0  0  0  0  0  0  0  0  0  0  0
    1.2050   19.3480   43.4960 C   0  0  0  0  0  0  0  0  0  0  0  0
    2.1820   20.1630   43.9740 C   0  0  0  0  0  0  0  0  0  0  0  0
    1.7240   18.7540   42.2920 C   0  0  0  0  0  0  0  0  0  0  0  0
    3.2870   20.1150   43.1480 N   0  0  0  0  0  0  0  0  0  0  0  0
    3.0300   19.2570   42.1140 C   0  0  0  0  0  0  0  0  0  0  0  0
    1.2210   17.8380   41.3600 C   0  0  0  0  0  0  0  0  0  0  0  0
    3.8320   18.8940   41.0240 C   0  0  0  0  0  0  0  0  0  0  0  0
    2.0230   17.4760   40.2790 C   0  0  0  0  0  0  0  0  0  0  0  0
    3.3150   17.9990   40.1280 C   0  0  0  0  0  0  0  0  0  0  0  0
   -2.0230   21.7740   42.4850 N   0  0  0  0  0  0  0  0  0  0  0  0
   -2.7780   22.0530   41.2620 C   0  0  2  0  0  0  0  0  0  0  0  0
   -1.9870   21.7080   40.0030 C   0  0  0  0  0  0  0  0  0  0  0  0
   -0.7530   21.8000   39.9700 O   0  0  0  0  0  0  0  0  0  0  0  0
   -3.0040   23.5640   41.3380 C   0  0  0  0  0  0  0  0  0  0  0  0
   -1.8460   24.0680   42.1190 C   0  0  0  0  0  0  0  0  0  0  0  0
   -1.5710   23.0070   43.1500 C   0  0  0  0  0  0  0  0  0  0  0  0
   -2.7120   21.3040   38.9700 N   0  0  0  0  0  0  0  0  0  0  0  0
   -2.1300   21.1870   37.6420 C   0  0  2  0  0  0  0  0  0  0  0  0
   -2.8960   22.0750   36.6790 C   0  0  0  0  0  0  0  0  0  0  0  0
   -4.0660   22.4120   36.9140 O   0  0  0  0  0  0  0  0  0  0  0  0
   -2.0650   19.7310   37.1430 C   0  0  2  0  0  0  0  0  0  0  0  0
   -3.3850   19.2160   36.9380 O   0  0  0  0  0  0  0  0  0  0  0  0
   -1.3090   18.8540   38.1340 C   0  0  0  0  0  0  0  0  0  0  0  0
   -2.2330   22.4750   35.6020 N   0  0  0  0  0  0  0  0  0  0  0  0
   -2.8430   23.3490   34.6140 C   0  0  2  0  0  0  0  0  0  0  0  0
   -2.7460   22.7430   33.2330 C   0  0  0  0  0  0  0  0  0  0  0  0
   -1.6890   22.2410   32.8320 O   0  0  0  0  0  0  0  0  0  0  0  0
   -2.1690   24.7190   34.6090 C   0  0  0  0  0  0  0  0  0  0  0  0
   -2.3430   25.3720   35.8460 O   0  0  0  0  0  0  0  0  0  0  0  0
   -3.8500   22.8250   32.4930 N   0  0  0  0  0  0  0  0  0  0  0  0
   -3.9120   22.3530   31.1110 C   0  0  2  0  0  0  0  0  0  0  0  0
   -3.4510   23.4420   30.1570 C   0  0  0  0  0  0  0  0  0  0  0  0
   -3.9220   24.5800   30.2300 O   0  0  0  0  0  0  0  0  0  0  0  0
   -5.3600   21.9570   30.7410 C   0  0  2  0  0  0  0  0  0  0  0  0
   -5.8390   20.8190   31.6510 C   0  0  0  0  0  0  0  0  0  0  0  0
   -5.4220   21.5870   29.2770 C   0  0  0  0  0  0  0  0  0  0  0  0
   -7.3700   20.6330   31.6690 C   0  0  0  0  0  0  0  0  0  0  0  0
   -2.5160   23.0940   29.2710 N   0  0  0  0  0  0  0  0  0  0  0  0
   -1.9090   24.0530   28.3530 C   0  0  2  0  0  0  0  0  0  0  0  0
   -2.0720   23.5940   26.9230 C   0  0  0  0  0  0  0  0  0  0  0  0
   -2.1490   22.3920   26.6370 O   0  5  0  0  0  0  0  0  0  0  0  0
   -0.4050   24.1610   28.6180 C   0  0  0  0  0  0  0  0  0  0  0  0
    0.0860   24.2730   30.0530 C   0  0  0  0  0  0  0  0  0  0  0  0
    1.6230   24.2230   30.0660 C   0  0  0  0  0  0  0  0  0  0  0  0
   -0.4160   25.5500   30.7030 C   0  0  0  0  0  0  0  0  0  0  0  0
   -2.0920   24.4420   26.0270 O   0  0  0  0  0  0  0  0  0  0  0  0
   -5.8699   17.4620   44.1068 H   0  0  0  0  0  0  0  0  0  0  0  0
   -4.4337   17.7330   44.8640 H   0  0  0  0  0  0  0  0  0  0  0  0
   -5.0548   18.8682   43.8466 H   0  0  0  0  0  0  0  0  0  0  0  0
   -6.8993   19.2613   45.2631 H   0  0  0  0  0  0  0  0  0  0  0  0
   -5.4944   17.2397   47.0775 H   0  0  0  0  0  0  0  0  0  0  0  0
   -7.0120   16.9505   46.1611 H   0  0  0  0  0  0  0  0  0  0  0  0
   -7.3894   17.5866   48.3457 H   0  0  0  0  0  0  0  0  0  0  0  0
   -3.7547   18.4522   46.7645 H   0  0  0  0  0  0  0  0  0  0  0  0
   -3.5084   21.2916   47.6336 H   0  0  0  0  0  0  0  0  0  0  0  0
   -2.5949   20.5135   49.5154 H   0  0  0  0  0  0  0  0  0  0  0  0
   -1.4049   19.5338   48.5931 H   0  0  0  0  0  0  0  0  0  0  0  0
   -4.2480   18.5652   49.0000 H   0  0  0  0  0  0  0  0  0  0  0  0
   -2.9989   18.3485   50.2726 H   0  0  0  0  0  0  0  0  0  0  0  0
   -2.8594   16.3481   49.0783 H   0  0  0  0  0  0  0  0  0  0  0  0
   -1.5538   17.3374   48.3411 H   0  0  0  0  0  0  0  0  0  0  0  0
   -4.2098   17.3856   47.0079 H   0  0  0  0  0  0  0  0  0  0  0  0
   -2.7866   15.9048   44.1561 H   0  0  0  0  0  0  0  0  0  0  0  0
   -4.2280   16.6939   44.8506 H   0  0  0  0  0  0  0  0  0  0  0  0
   -0.8969   16.1365   47.1456 H   0  0  0  0  0  0  0  0  0  0  0  0
   -0.9102   15.5989   45.4445 H   0  0  0  0  0  0  0  0  0  0  0  0
   -2.9349   19.7525   44.9566 H   0  0  0  0  0  0  0  0  0  0  0  0
   -0.4297   21.2139   44.3923 H   0  0  0  0  0  0  0  0  0  0  0  0
   -0.6502   18.3177   43.5408 H   0  0  0  0  0  0  0  0  0  0  0  0
    0.0192   18.7483   45.1512 H   0  0  0  0  0  0  0  0  0  0  0  0
    2.1044   20.7662   44.8773 H   0  0  0  0  0  0  0  0  0  0  0  0
    4.1623   20.6397   43.2875 H   0  0  0  0  0  0  0  0  0  0  0  0
    0.2281   17.4189   41.4768 H   0  0  0  0  0  0  0  0  0  0  0  0
    4.8258   19.3073   40.8954 H   0  0  0  0  0  0  0  0  0  0  0  0
    1.6413   16.7782   39.5425 H   0  0  0  0  0  0  0  0  0  0  0  0
    3.9176   17.6872   39.2825 H   0  0  0  0  0  0  0  0  0  0  0  0
   -3.7320   21.5054   41.2573 H   0  0  0  0  0  0  0  0  0  0  0  0
   -3.9495   23.7915   41.8520 H   0  0  0  0  0  0  0  0  0  0  0  0
   -3.0179   24.0073   40.3314 H   0  0  0  0  0  0  0  0  0  0  0  0
   -2.0953   25.0226   42.6054 H   0  0  0  0  0  0  0  0  0  0  0  0
   -0.9717   24.2066   41.4660 H   0  0  0  0  0  0  0  0  0  0  0  0
   -0.4985   22.9568   43.3892 H   0  0  0  0  0  0  0  0  0  0  0  0
   -2.1438   23.1925   44.0706 H   0  0  0  0  0  0  0  0  0  0  0  0
   -3.6761   21.0756   39.1058 H   0  0  0  0  0  0  0  0  0  0  0  0
   -1.0963   21.5590   37.6963 H   0  0  0  0  0  0  0  0  0  0  0  0
   -1.5289   19.7152   36.1826 H   0  0  0  0  0  0  0  0  0  0  0  0
   -3.8647   19.2422   37.7575 H   0  0  0  0  0  0  0  0  0  0  0  0
   -1.2752   17.8209   37.7578 H   0  0  0  0  0  0  0  0  0  0  0  0
   -1.8223   18.8733   39.1067 H   0  0  0  0  0  0  0  0  0  0  0  0
   -0.2838   19.2347   38.2528 H   0  0  0  0  0  0  0  0  0  0  0  0
   -1.2910   22.1679   35.4667 H   0  0  0  0  0  0  0  0  0  0  0  0
   -3.9048   23.4779   34.8710 H   0  0  0  0  0  0  0  0  0  0  0  0
   -2.6113   25.3346   33.8119 H   0  0  0  0  0  0  0  0  0  0  0  0
   -1.0933   24.5900   34.4185 H   0  0  0  0  0  0  0  0  0  0  0  0
   -1.9592   24.8456   36.5375 H   0  0  0  0  0  0  0  0  0  0  0  0
   -4.6708   23.2262   32.8997 H   0  0  0  0  0  0  0  0  0  0  0  0
   -3.2570   21.4757   31.0044 H   0  0  0  0  0  0  0  0  0  0  0  0
   -6.0158   22.8249   30.9043 H   0  0  0  0  0  0  0  0  0  0  0  0
   -5.5043   21.0321   32.6769 H   0  0  0  0  0  0  0  0  0  0  0  0
   -5.3807   19.8815   31.3031 H   0  0  0  0  0  0  0  0  0  0  0  0
   -5.0694   22.4336   28.6696 H   0  0  0  0  0  0  0  0  0  0  0  0
   -6.4599   21.3465   29.0032 H   0  0  0  0  0  0  0  0  0  0  0  0
   -4.7819   20.7117   29.0926 H   0  0  0  0  0  0  0  0  0  0  0  0
   -7.6305   19.8023   32.3413 H   0  0  0  0  0  0  0  0  0  0  0  0
   -7.7239   20.4067   30.6524 H   0  0  0  0  0  0  0  0  0  0  0  0
   -7.8475   21.5573   32.0262 H   0  0  0  0  0  0  0  0  0  0  0  0
   -2.2197   22.1396   29.2345 H   0  0  0  0  0  0  0  0  0  0  0  0
   -2.3854   25.0353   28.4876 H   0  0  0  0  0  0  0  0  0  0  0  0
   -0.0473   25.0541   28.0846 H   0  0  0  0  0  0  0  0  0  0  0  0
    0.0633   23.2641   28.1865 H   0  0  0  0  0  0  0  0  0  0  0  0
   -0.3006   23.4171   30.6258 H   0  0  0  0  0  0  0  0  0  0  0  0
    1.9837   24.3037   31.1020 H   0  0  0  0  0  0  0  0  0  0  0  0
    2.0221   25.0589   29.4727 H   0  0  0  0  0  0  0  0  0  0  0  0
    1.9626   23.2707   29.6327 H   0  0  0  0  0  0  0  0  0  0  0  0
   -1.5157   25.5641   30.6824 H   0  0  0  0  0  0  0  0  0  0  0  0
   -0.0279   26.4192   30.1518 H   0  0  0  0  0  0  0  0  0  0  0  0
   -0.0682   25.5919   31.7457 H   0  0  0  0  0  0  0  0  0  0  0  0
  1  2  1  0  0  0  0
  1 69  1  0  0  0  0
  1 70  1  0  0  0  0
  1 71  1  0  0  0  0
  2  3  1  0  0  0  0
  2  5  1  0  0  0  0
  2 72  1  6  0  0  0
  3  4  2  0  0  0  0
  3  7  1  0  0  0  0
  5  6  1  0  0  0  0
  5 73  1  0  0  0  0
  5 74  1  0  0  0  0
  6 75  1  0  0  0  0
  7  8  1  0  0  0  0
  7 76  1  0  0  0  0
  8  9  1  0  0  0  0
  8 11  1  0  0  0  0
  8 77  1  1  0  0  0
  9 10  2  0  0  0  0
  9 18  1  0  0  0  0
 11 12  1  0  0  0  0
 11 78  1  0  0  0  0
 11 79  1  0  0  0  0
 12 13  1  0  0  0  0
 12 80  1  0  0  0  0
 12 81  1  0  0  0  0
 13 14  1  0  0  0  0
 13 82  1  0  0  0  0
 13 83  1  0  0  0  0
 14 15  1  0  0  0  0
 14 84  1  0  0  0  0
 15 16  1  0  0  0  0
 15 17  1  0  0  0  0
 16 85  1  0  0  0  0
 16 86  1  0  0  0  0
 17 87  1  0  0  0  0
 17 88  1  0  0  0  0
 18 19  1  0  0  0  0
 18 89  1  0  0  0  0
 19 20  1  0  0  0  0
 19 22  1  0  0  0  0
 19 90  1  1  0  0  0
 20 21  2  0  0  0  0
 20 32  1  0  0  0  0
 22 23  1  0  0  0  0
 22 91  1  0  0  0  0
 22 92  1  0  0  0  0
 23 24  2  0  0  0  0
 23 25  1  0  0  0  0
 24 26  1  0  0  0  0
 24 93  1  0  0  0  0
 25 27  2  0  0  0  0
 25 28  1  0  0  0  0
 26 27  1  0  0  0  0
 26 94  1  0  0  0  0
 27 29  1  0  0  0  0
 28 30  2  0  0  0  0
 28 95  1  0  0  0  0
 29 31  2  0  0  0  0
 29 96  1  0  0  0  0
 30 31  1  0  0  0  0
 30 97  1  0  0  0  0
 31 98  1  0  0  0  0
 32 33  1  0  0  0  0
 32 38  1  0  0  0  0
 33 34  1  0  0  0  0
 33 36  1  0  0  0  0
 33 99  1  1  0  0  0
 34 35  2  0  0  0  0
 34 39  1  0  0  0  0
 36 37  1  0  0  0  0
 36100  1  0  0  0  0
 36101  1  0  0  0  0
 37 38  1  0  0  0  0
 37102  1  0  0  0  0
 37103  1  0  0  0  0
 38104  1  0  0  0  0
 38105  1  0  0  0  0
 39 40  1  0  0  0  0
 39106  1  0  0  0  0
 40 41  1  0  0  0  0
 40 43  1  0  0  0  0
 40107  1  1  0  0  0
 41 42  2  0  0  0  0
 41 46  1  0  0  0  0
 43 44  1  0  0  0  0
 43 45  1  0  0  0  0
 43108  1  6  0  0  0
 44109  1  0  0  0  0
 45110  1  0  0  0  0
 45111  1  0  0  0  0
 45112  1  0  0  0  0
 46 47  1  0  0  0  0
 46113  1  0  0  0  0
 47 48  1  0  0  0  0
 47 50  1  0  0  0  0
 47114  1  1  0  0  0
 48 49  2  0  0  0  0
 48 52  1  0  0  0  0
 50 51  1  0  0  0  0
 50115  1  0  0  0  0
 50116  1  0  0  0  0
 51117  1  0  0  0  0
 52 53  1  0  0  0  0
 52118  1  0  0  0  0
 53 54  1  0  0  0  0
 53 56  1  0  0  0  0
 53119  1  6  0  0  0
 54 55  2  0  0  0  0
 54 60  1  0  0  0  0
 56 57  1  0  0  0  0
 56 58  1  0  0  0  0
 56120  1  1  0  0  0
 57 59  1  0  0  0  0
 57121  1  0  0  0  0
 57122  1  0  0  0  0
 58123  1  0  0  0  0
 58124  1  0  0  0  0
 58125  1  0  0  0  0
 59126  1  0  0  0  0
 59127  1  0  0  0  0
 59128  1  0  0  0  0
 60 61  1  0  0  0  0
 60129  1  0  0  0  0
 61 62  1  0  0  0  0
 61 64  1  0  0  0  0
 61130  1  1  0  0  0
 62 63  1  0  0  0  0
 62 68  2  0  0  0  0
 64 65  1  0  0  0  0
 64131  1  0  0  0  0
 64132  1  0  0  0  0
 65 66  1  0  0  0  0
 65 67  1  0  0  0  0
 65133  1  0  0  0  0
 66134  1  0  0  0  0
 66135  1  0  0  0  0
 66136  1  0  0  0  0
 67137  1  0  0  0  0
 67138  1  0  0  0  0
 67139  1  0  0  0  0
M  CHG  2   1   1  63  -1
M  END
