4e3f_ligand
 OpenBabel08222323353D

 16 16  0  0  0  0  0  0  0  0999 V2000
   16.8350    2.2560   16.0540 C   0  0  0  0  0  0  0  0  0  0  0  0
   17.9450    1.7340   16.0400 O   0  5  0  0  0  0  0  0  0  0  0  0
   15.9630    1.8420   16.8640 O   0  0  0  0  0  0  0  0  0  0  0  0
   16.5880    3.3400   15.1800 C   0  0  0  0  0  0  0  0  0  0  0  0
   15.2980    3.8710   15.1100 C   0  0  0  0  0  0  0  0  0  0  0  0
   15.0440    5.0110   14.3740 C   0  0  0  0  0  0  0  0  0  0  0  0
   15.9890    5.5990   13.5570 C   0  0  0  0  0  0  0  0  0  0  0  0
   17.3010    5.0710   13.6010 C   0  0  0  0  0  0  0  0  0  0  0  0
   17.5730    3.9560   14.4010 C   0  0  0  0  0  0  0  0  0  0  0  0
   14.3640    3.2860   15.9020 O   0  0  0  0  0  0  0  0  0  0  0  0
   18.8660    3.4670   14.4620 O   0  0  0  0  0  0  0  0  0  0  0  0
   14.0612    5.4636   14.4403 H   0  0  0  0  0  0  0  0  0  0  0  0
   15.7364    6.4304   12.9089 H   0  0  0  0  0  0  0  0  0  0  0  0
   18.0918    5.5284   13.0175 H   0  0  0  0  0  0  0  0  0  0  0  0
   14.7389    2.5186   16.3181 H   0  0  0  0  0  0  0  0  0  0  0  0
   18.8917    2.7143   15.0410 H   0  0  0  0  0  0  0  0  0  0  0  0
  1  2  1  0  0  0  0
  1  3  2  0  0  0  0
  1  4  1  0  0  0  0
  4  5  2  0  0  0  0
  4  9  1  0  0  0  0
  5  6  1  0  0  0  0
  5 10  1  0  0  0  0
  6  7  2  0  0  0  0
  6 12  1  0  0  0  0
  7  8  1  0  0  0  0
  7 13  1  0  0  0  0
  8  9  2  0  0  0  0
  8 14  1  0  0  0  0
  9 11  1  0  0  0  0
 10 15  1  0  0  0  0
 11 16  1  0  0  0  0
M  CHG  1   2  -1
M  END
