4e49_ligand
 OpenBabel08222323353D

 14 14  0  0  0  0  0  0  0  0999 V2000
   15.1510    3.8930   16.0280 C   0  0  0  0  0  0  0  0  0  0  0  0
   15.4980    2.5520   16.2970 C   0  0  0  0  0  0  0  0  0  0  0  0
   15.3070    2.0830   17.6050 C   0  0  0  0  0  0  0  0  0  0  0  0
   14.8270    2.9310   18.6490 C   0  0  0  0  0  0  0  0  0  0  0  0
   14.5070    4.3060   18.3450 C   0  0  0  0  0  0  0  0  0  0  0  0
   14.6840    4.7020   17.0330 C   0  0  0  0  0  0  0  0  0  0  0  0
   15.3660    4.4100   14.7570 O   0  0  0  0  0  0  0  0  0  0  0  0
   15.6540    0.7910   17.9150 O   0  0  0  0  0  0  0  0  0  0  0  0
   15.8973    1.9082   15.5216 H   0  0  0  0  0  0  0  0  0  0  0  0
   14.7046    2.5479   19.6556 H   0  0  0  0  0  0  0  0  0  0  0  0
   14.1474    4.9904   19.1048 H   0  0  0  0  0  0  0  0  0  0  0  0
   14.4359    5.7263   16.7793 H   0  0  0  0  0  0  0  0  0  0  0  0
   15.6870    3.7216   14.1864 H   0  0  0  0  0  0  0  0  0  0  0  0
   15.9533    0.3476   17.1299 H   0  0  0  0  0  0  0  0  0  0  0  0
  1  2  2  0  0  0  0
  1  6  1  0  0  0  0
  1  7  1  0  0  0  0
  2  3  1  0  0  0  0
  2  9  1  0  0  0  0
  3  4  2  0  0  0  0
  3  8  1  0  0  0  0
  4  5  1  0  0  0  0
  4 10  1  0  0  0  0
  5  6  2  0  0  0  0
  5 11  1  0  0  0  0
  6 12  1  0  0  0  0
  7 13  1  0  0  0  0
  8 14  1  0  0  0  0
M  END
