4e4a_ligand
 OpenBabel08222323353D

 15 15  0  0  0  0  0  0  0  0999 V2000
   15.0270    4.4040   14.0040 S   0  0  0  0  0  0  0  0  0  0  0  0
   16.7260    2.3700   15.2740 C   0  0  0  0  0  0  0  0  0  0  0  0
   17.4480    3.4770   14.5920 C   0  0  0  0  0  0  0  0  0  0  0  0
   17.4330    5.4910   13.3220 C   0  0  0  0  0  0  0  0  0  0  0  0
   15.4710    2.1550   15.1570 O   0  5  0  0  0  0  0  0  0  0  0  0
   19.4930    4.6050   13.9610 C   0  0  0  0  0  0  0  0  0  0  0  0
   17.4000    1.7780   16.0980 O   0  0  0  0  0  0  0  0  0  0  0  0
   16.7520    4.4780   13.9840 C   0  0  0  0  0  0  0  0  0  0  0  0
   18.8470    3.5410   14.6110 C   0  0  0  0  0  0  0  0  0  0  0  0
   18.7810    5.5910   13.3150 C   0  0  0  0  0  0  0  0  0  0  0  0
   14.6519    5.2048   13.5201 H   0  0  0  0  0  0  0  0  0  0  0  0
   16.8568    6.2363   12.7858 H   0  0  0  0  0  0  0  0  0  0  0  0
   20.5760    4.6512   13.9679 H   0  0  0  0  0  0  0  0  0  0  0  0
   19.4241    2.7784   15.1213 H   0  0  0  0  0  0  0  0  0  0  0  0
   19.2820    6.4152   12.8202 H   0  0  0  0  0  0  0  0  0  0  0  0
  1 11  1  0  0  0  0
  2  5  1  0  0  0  0
  2  7  2  0  0  0  0
  3  2  1  0  0  0  0
  3  8  2  0  0  0  0
  3  9  1  0  0  0  0
  4 10  2  0  0  0  0
  4 12  1  0  0  0  0
  6 10  1  0  0  0  0
  6 13  1  0  0  0  0
  8  1  1  0  0  0  0
  8  4  1  0  0  0  0
  9  6  2  0  0  0  0
  9 14  1  0  0  0  0
 10 15  1  0  0  0  0
M  CHG  1   5  -1
M  END
