4e5g_ligand
 OpenBabel08222323353D

 21 21  0  0  0  0  0  0  0  0999 V2000
  -13.0550  -18.3250  -22.6650 O   0  0  0  0  0  0  0  0  0  0  0  0
  -12.8910  -18.0560  -23.9550 C   0  0  0  0  0  0  0  0  0  0  0  0
  -13.7900  -18.6560  -24.9240 C   0  0  0  0  0  0  0  0  0  0  0  0
  -14.6860  -19.4090  -24.4950 O   0  5  0  0  0  0  0  0  0  0  0  0
  -13.6390  -18.4010  -26.1400 O   0  0  0  0  0  0  0  0  0  0  0  0
  -11.9240  -17.2480  -24.3980 C   0  0  0  0  0  0  0  0  0  0  0  0
  -10.9600  -16.5860  -23.5090 C   0  0  0  0  0  0  0  0  0  0  0  0
   -9.9120  -15.6960  -24.1160 C   0  0  0  0  0  0  0  0  0  0  0  0
   -8.9810  -15.0470  -23.2950 C   0  0  0  0  0  0  0  0  0  0  0  0
   -8.0100  -14.2240  -23.8690 C   0  0  0  0  0  0  0  0  0  0  0  0
   -7.9760  -14.0490  -25.2560 C   0  0  0  0  0  0  0  0  0  0  0  0
   -8.9070  -14.6960  -26.0790 C   0  0  0  0  0  0  0  0  0  0  0  0
   -9.8720  -15.5180  -25.5080 C   0  0  0  0  0  0  0  0  0  0  0  0
  -11.0060  -16.7600  -22.3050 O   0  0  0  0  0  0  0  0  0  0  0  0
  -12.3893  -17.8581  -22.1548 H   0  0  0  0  0  0  0  0  0  0  0  0
  -11.8465  -17.0714  -25.4708 H   0  0  0  0  0  0  0  0  0  0  0  0
   -9.0143  -15.1837  -22.2141 H   0  0  0  0  0  0  0  0  0  0  0  0
   -7.2797  -13.7187  -23.2370 H   0  0  0  0  0  0  0  0  0  0  0  0
   -7.2185  -13.4036  -25.7007 H   0  0  0  0  0  0  0  0  0  0  0  0
   -8.8750  -14.5559  -27.1595 H   0  0  0  0  0  0  0  0  0  0  0  0
  -10.5989  -16.0252  -26.1423 H   0  0  0  0  0  0  0  0  0  0  0  0
  1  2  1  0  0  0  0
  1 15  1  0  0  0  0
  2  3  1  0  0  0  0
  2  6  2  0  0  0  0
  3  4  1  0  0  0  0
  3  5  2  0  0  0  0
  6  7  1  0  0  0  0
  6 16  1  0  0  0  0
  7  8  1  0  0  0  0
  7 14  2  0  0  0  0
  8  9  2  0  0  0  0
  8 13  1  0  0  0  0
  9 10  1  0  0  0  0
  9 17  1  0  0  0  0
 10 11  2  0  0  0  0
 10 18  1  0  0  0  0
 11 12  1  0  0  0  0
 11 19  1  0  0  0  0
 12 13  2  0  0  0  0
 12 20  1  0  0  0  0
 13 21  1  0  0  0  0
M  CHG  1   4  -1
M  END
