4e93_ligand
 OpenBabel08222323353D

 84 88  0  0  1  0  0  0  0  0999 V2000
    2.0770   14.3910   23.7010 C   0  0  0  0  0  0  0  0  0  0  0  0
    2.4490   15.5000   24.4940 C   0  0  0  0  0  0  0  0  0  0  0  0
    1.4880   16.1830   25.1490 N   0  0  0  0  0  0  0  0  0  0  0  0
    0.2280   15.7720   25.1410 C   0  0  0  0  0  0  0  0  0  0  0  0
   -0.1570   14.6940   24.3790 N   0  0  0  0  0  0  0  0  0  0  0  0
    0.7450   13.9990   23.7120 C   0  0  0  0  0  0  0  0  0  0  0  0
   -0.7070   16.4230   25.7820 N   0  0  0  0  0  0  0  0  0  0  0  0
   -0.5960   17.4730   26.6370 C   0  0  0  0  0  0  0  0  0  0  0  0
    0.5700   17.7530   27.3490 C   0  0  0  0  0  0  0  0  0  0  0  0
    0.6150   18.8670   28.1920 C   0  0  0  0  0  0  0  0  0  0  0  0
   -0.4880   19.7080   28.3160 C   0  0  0  0  0  0  0  0  0  0  0  0
   -1.6480   19.4670   27.5600 C   0  0  0  0  0  0  0  0  0  0  0  0
   -1.6740   18.3280   26.7390 C   0  0  0  0  0  0  0  0  0  0  0  0
   -2.7730   18.0310   26.0150 O   0  0  0  0  0  0  0  0  0  0  0  0
   -3.8470   18.9800   26.1190 C   0  0  0  0  0  0  0  0  0  0  0  0
   -0.3650   20.8640   29.1480 N   0  0  0  0  0  0  0  0  0  0  0  0
    0.6370   20.8540   30.2660 C   0  0  0  0  0  0  0  0  0  0  0  0
    0.5260   22.0410   31.2410 C   0  0  0  0  0  0  0  0  0  0  0  0
    0.2780   23.4090   30.5840 C   0  0  0  0  0  0  0  0  0  0  0  0
   -0.9500   23.3420   29.6250 C   0  0  0  0  0  0  0  0  0  0  0  0
   -0.9390   22.1430   28.6030 C   0  0  0  0  0  0  0  0  0  0  0  0
   -0.0180   24.5080   31.6190 N   0  3  1  0  0  0  0  0  0  0  0  0
    1.1370   24.8190   32.4080 C   0  0  0  0  0  0  0  0  0  0  0  0
    0.7630   26.0320   33.3340 C   0  0  0  0  0  0  0  0  0  0  0  0
   -0.2830   26.9140   32.7550 N   0  3  2  0  0  0  0  0  0  0  0  0
   -0.4620   26.9390   31.3120 C   0  0  0  0  0  0  0  0  0  0  0  0
   -0.5180   25.5350   30.7440 C   0  0  0  0  0  0  0  0  0  0  0  0
   -0.0670   28.3130   33.1810 C   0  0  0  0  0  0  0  0  0  0  0  0
    3.7340   15.8670   24.5110 N   0  0  0  0  0  0  0  0  0  0  0  0
    4.2700   16.9410   25.1510 C   0  0  0  0  0  0  0  0  0  0  0  0
    5.6360   16.9570   25.4930 C   0  0  0  0  0  0  0  0  0  0  0  0
    6.1360   18.1020   26.1670 C   0  0  0  0  0  0  0  0  0  0  0  0
    5.3470   19.2160   26.4420 C   0  0  0  0  0  0  0  0  0  0  0  0
    3.9940   19.2060   26.1160 C   0  0  0  0  0  0  0  0  0  0  0  0
    3.5020   18.0460   25.4850 C   0  0  0  0  0  0  0  0  0  0  0  0
    6.7120   15.6950   25.2160 S   0  0  0  0  0  0  0  0  0  0  0  0
    6.7930   14.6930   26.7270 C   0  0  0  0  0  0  0  0  0  0  0  0
    5.4070   14.0960   26.9570 C   0  0  0  0  0  0  0  0  0  0  0  0
    7.2060   15.5250   27.9370 C   0  0  0  0  0  0  0  0  0  0  0  0
    8.1260   16.1550   24.9640 O   0  0  0  0  0  0  0  0  0  0  0  0
    6.2780   14.8260   24.0870 O   0  0  0  0  0  0  0  0  0  0  0  0
    3.2470   13.4590   22.8500 Cl  0  0  0  0  0  0  0  0  0  0  0  0
    0.4427   13.1123   23.1667 H   0  0  0  0  0  0  0  0  0  0  0  0
   -1.6678   16.0917   25.6145 H   0  0  0  0  0  0  0  0  0  0  0  0
    1.4370   17.1100   27.2492 H   0  0  0  0  0  0  0  0  0  0  0  0
    1.5171   19.0783   28.7546 H   0  0  0  0  0  0  0  0  0  0  0  0
   -2.4966   20.1397   27.6091 H   0  0  0  0  0  0  0  0  0  0  0  0
   -4.6906   18.6487   25.4956 H   0  0  0  0  0  0  0  0  0  0  0  0
   -3.5005   19.9652   25.7736 H   0  0  0  0  0  0  0  0  0  0  0  0
   -4.1721   19.0525   27.1674 H   0  0  0  0  0  0  0  0  0  0  0  0
    1.6440   20.8672   29.8236 H   0  0  0  0  0  0  0  0  0  0  0  0
    0.5007   19.9255   30.8399 H   0  0  0  0  0  0  0  0  0  0  0  0
    1.4653   22.1025   31.8101 H   0  0  0  0  0  0  0  0  0  0  0  0
   -0.3075   21.8385   31.9297 H   0  0  0  0  0  0  0  0  0  0  0  0
    1.1750   23.6867   30.0111 H   0  0  0  0  0  0  0  0  0  0  0  0
   -0.9840   24.2790   29.0498 H   0  0  0  0  0  0  0  0  0  0  0  0
   -1.8578   23.2563   30.2402 H   0  0  0  0  0  0  0  0  0  0  0  0
   -1.9756   21.9486   28.2904 H   0  0  0  0  0  0  0  0  0  0  0  0
   -0.3423   22.4423   27.7287 H   0  0  0  0  0  0  0  0  0  0  0  0
   -0.7464   24.2180   32.2525 H   0  0  0  0  0  0  0  0  0  0  0  0
    1.9773   25.0918   31.7527 H   0  0  0  0  0  0  0  0  0  0  0  0
    1.4177   23.9504   33.0218 H   0  0  0  0  0  0  0  0  0  0  0  0
    1.6689   26.6317   33.5064 H   0  0  0  0  0  0  0  0  0  0  0  0
    0.3957   25.6385   34.2933 H   0  0  0  0  0  0  0  0  0  0  0  0
   -1.1564   26.5969   33.1457 H   0  0  0  0  0  0  0  0  0  0  0  0
    0.3809   27.4779   30.8548 H   0  0  0  0  0  0  0  0  0  0  0  0
   -1.4017   27.4597   31.0756 H   0  0  0  0  0  0  0  0  0  0  0  0
   -1.5672   25.3029   30.5090 H   0  0  0  0  0  0  0  0  0  0  0  0
    0.0777   25.5163   29.8194 H   0  0  0  0  0  0  0  0  0  0  0  0
    0.0743   28.3466   34.2714 H   0  0  0  0  0  0  0  0  0  0  0  0
   -0.9426   28.9194   32.9060 H   0  0  0  0  0  0  0  0  0  0  0  0
    0.8280   28.7140   32.6828 H   0  0  0  0  0  0  0  0  0  0  0  0
    4.3888   15.2728   23.9828 H   0  0  0  0  0  0  0  0  0  0  0  0
    7.1737   18.1094   26.4802 H   0  0  0  0  0  0  0  0  0  0  0  0
    5.7861   20.0899   26.9094 H   0  0  0  0  0  0  0  0  0  0  0  0
    3.3500   20.0495   26.3367 H   0  0  0  0  0  0  0  0  0  0  0  0
    2.4458   18.0154   25.2430 H   0  0  0  0  0  0  0  0  0  0  0  0
    7.5253   13.8842   26.5868 H   0  0  0  0  0  0  0  0  0  0  0  0
    5.4197   13.4802   27.8684 H   0  0  0  0  0  0  0  0  0  0  0  0
    5.1296   13.4705   26.0957 H   0  0  0  0  0  0  0  0  0  0  0  0
    4.6730   14.9070   27.0728 H   0  0  0  0  0  0  0  0  0  0  0  0
    7.2428   14.8820   28.8288 H   0  0  0  0  0  0  0  0  0  0  0  0
    6.4736   16.3302   28.0956 H   0  0  0  0  0  0  0  0  0  0  0  0
    8.1994   15.9626   27.7593 H   0  0  0  0  0  0  0  0  0  0  0  0
  1  2  2  0  0  0  0
  1  6  1  0  0  0  0
  1 42  1  0  0  0  0
  2  3  1  0  0  0  0
  2 29  1  0  0  0  0
  3  4  2  0  0  0  0
  4  5  1  0  0  0  0
  4  7  1  0  0  0  0
  5  6  2  0  0  0  0
  6 43  1  0  0  0  0
  7  8  1  0  0  0  0
  7 44  1  0  0  0  0
  8  9  2  0  0  0  0
  8 13  1  0  0  0  0
  9 10  1  0  0  0  0
  9 45  1  0  0  0  0
 10 11  2  0  0  0  0
 10 46  1  0  0  0  0
 11 12  1  0  0  0  0
 11 16  1  0  0  0  0
 12 13  2  0  0  0  0
 12 47  1  0  0  0  0
 13 14  1  0  0  0  0
 14 15  1  0  0  0  0
 15 48  1  0  0  0  0
 15 49  1  0  0  0  0
 15 50  1  0  0  0  0
 16 17  1  0  0  0  0
 16 21  1  0  0  0  0
 17 18  1  0  0  0  0
 17 51  1  0  0  0  0
 17 52  1  0  0  0  0
 18 19  1  0  0  0  0
 18 53  1  0  0  0  0
 18 54  1  0  0  0  0
 19 20  1  0  0  0  0
 19 22  1  0  0  0  0
 19 55  1  0  0  0  0
 20 21  1  0  0  0  0
 20 56  1  0  0  0  0
 20 57  1  0  0  0  0
 21 58  1  0  0  0  0
 21 59  1  0  0  0  0
 22 23  1  0  0  0  0
 22 27  1  0  0  0  0
 22 60  1  1  0  0  0
 23 24  1  0  0  0  0
 23 61  1  0  0  0  0
 23 62  1  0  0  0  0
 24 25  1  0  0  0  0
 24 63  1  0  0  0  0
 24 64  1  0  0  0  0
 25 26  1  0  0  0  0
 25 28  1  0  0  0  0
 25 65  1  1  0  0  0
 26 27  1  0  0  0  0
 26 66  1  0  0  0  0
 26 67  1  0  0  0  0
 27 68  1  0  0  0  0
 27 69  1  0  0  0  0
 28 70  1  0  0  0  0
 28 71  1  0  0  0  0
 28 72  1  0  0  0  0
 29 30  1  0  0  0  0
 29 73  1  0  0  0  0
 30 31  2  0  0  0  0
 30 35  1  0  0  0  0
 31 32  1  0  0  0  0
 31 36  1  0  0  0  0
 32 33  2  0  0  0  0
 32 74  1  0  0  0  0
 33 34  1  0  0  0  0
 33 75  1  0  0  0  0
 34 35  2  0  0  0  0
 34 76  1  0  0  0  0
 35 77  1  0  0  0  0
 36 37  1  0  0  0  0
 36 40  2  0  0  0  0
 36 41  2  0  0  0  0
 37 38  1  0  0  0  0
 37 39  1  0  0  0  0
 37 78  1  0  0  0  0
 38 79  1  0  0  0  0
 38 80  1  0  0  0  0
 38 81  1  0  0  0  0
 39 82  1  0  0  0  0
 39 83  1  0  0  0  0
 39 84  1  0  0  0  0
M  CHG  2  22   1  25   1
M  END
