4ear_ligand
 OpenBabel08222323353D

 39 41  0  0  1  0  0  0  0  0999 V2000
  -19.8460   26.4910  -47.3730 N   0  0  0  0  0  0  0  0  0  0  0  0
  -18.9290   27.1450  -46.5310 C   0  0  2  0  0  3  0  0  0  0  0  0
  -18.4760   26.4840  -45.4810 N   0  0  0  0  0  0  0  0  0  0  0  0
  -18.6000   28.4440  -46.7570 N   0  0  0  0  0  0  0  0  0  0  0  0
  -19.1600   29.1090  -47.8200 C   0  0  0  0  0  0  0  0  0  0  0  0
  -20.0320   28.4690  -48.6590 C   0  0  0  0  0  0  0  0  0  0  0  0
  -20.3920   27.1680  -48.4520 C   0  0  0  0  0  0  0  0  0  0  0  0
  -21.1760   26.5190  -49.1820 O   0  0  0  0  0  0  0  0  0  0  0  0
  -20.3890   29.3620  -49.6030 N   0  0  0  0  0  0  0  0  0  0  0  0
  -19.7760   30.5280  -49.3530 C   0  0  0  0  0  0  0  0  0  0  0  0
  -18.9870   30.3680  -48.2820 C   0  0  0  0  0  0  0  0  0  0  0  0
  -16.6800   31.5010  -48.0870 N   0  3  1  0  0  0  0  0  0  0  0  0
  -18.1220   31.4520  -47.6210 C   0  0  0  0  0  0  0  0  0  0  0  0
  -15.9090   30.3670  -47.6320 C   0  0  0  0  0  0  0  0  0  0  0  0
  -14.5440   30.7200  -48.3060 C   0  0  2  0  0  0  0  0  0  0  0  0
  -13.8130   31.7610  -47.6080 O   0  0  0  0  0  0  0  0  0  0  0  0
  -14.9880   31.1760  -49.7040 C   0  0  1  0  0  0  0  0  0  0  0  0
  -14.8610   30.0210  -50.6510 C   0  0  0  0  0  0  0  0  0  0  0  0
  -15.5840   30.3640  -51.8460 O   0  0  0  0  0  0  0  0  0  0  0  0
  -16.5110   31.5640  -49.5310 C   0  0  0  0  0  0  0  0  0  0  0  0
  -20.1031   25.5413  -47.1939 H   0  0  0  0  0  0  0  0  0  0  0  0
  -17.8031   26.9311  -44.8420 H   0  0  0  0  0  0  0  0  0  0  0  0
  -18.7956   25.5215  -45.3012 H   0  0  0  0  0  0  0  0  0  0  0  0
  -17.9353   28.9264  -46.1354 H   0  0  0  0  0  0  0  0  0  0  0  0
  -21.0289   29.1786  -50.3890 H   0  0  0  0  0  0  0  0  0  0  0  0
  -19.8985   31.4478  -49.9230 H   0  0  0  0  0  0  0  0  0  0  0  0
  -16.2766   32.3360  -47.6920 H   0  0  0  0  0  0  0  0  0  0  0  0
  -18.1229   31.2731  -46.5357 H   0  0  0  0  0  0  0  0  0  0  0  0
  -18.5810   32.4291  -47.8319 H   0  0  0  0  0  0  0  0  0  0  0  0
  -16.3178   29.4146  -48.0005 H   0  0  0  0  0  0  0  0  0  0  0  0
  -15.8318   30.3330  -46.5353 H   0  0  0  0  0  0  0  0  0  0  0  0
  -13.9050   29.8270  -48.3714 H   0  0  0  0  0  0  0  0  0  0  0  0
  -12.9961   31.9316  -48.0620 H   0  0  0  0  0  0  0  0  0  0  0  0
  -14.3944   32.0318  -50.0579 H   0  0  0  0  0  0  0  0  0  0  0  0
  -15.2903   29.1148  -50.1988 H   0  0  0  0  0  0  0  0  0  0  0  0
  -13.8017   29.8451  -50.8898 H   0  0  0  0  0  0  0  0  0  0  0  0
  -15.2098   31.1498  -52.2266 H   0  0  0  0  0  0  0  0  0  0  0  0
  -16.7109   32.5762  -49.9125 H   0  0  0  0  0  0  0  0  0  0  0  0
  -17.1669   30.8435  -50.0415 H   0  0  0  0  0  0  0  0  0  0  0  0
  1  2  1  0  0  0  0
  1  7  1  0  0  0  0
  1 21  1  0  0  0  0
  2  3  1  1  0  0  0
  2  4  1  0  0  0  0
  3 22  1  0  0  0  0
  3 23  1  0  0  0  0
  4  5  1  0  0  0  0
  4 24  1  0  0  0  0
  5  6  2  0  0  0  0
  5 11  1  0  0  0  0
  6  7  1  0  0  0  0
  6  9  1  0  0  0  0
  7  8  2  0  0  0  0
  9 10  1  0  0  0  0
  9 25  1  0  0  0  0
 10 11  2  0  0  0  0
 10 26  1  0  0  0  0
 11 13  1  0  0  0  0
 12 14  1  0  0  0  0
 12 20  1  0  0  0  0
 12 27  1  1  0  0  0
 13 12  1  0  0  0  0
 13 28  1  0  0  0  0
 13 29  1  0  0  0  0
 14 15  1  0  0  0  0
 14 30  1  0  0  0  0
 14 31  1  0  0  0  0
 15 16  1  0  0  0  0
 15 17  1  0  0  0  0
 15 32  1  6  0  0  0
 16 33  1  0  0  0  0
 17 18  1  0  0  0  0
 17 20  1  0  0  0  0
 17 34  1  6  0  0  0
 18 19  1  0  0  0  0
 18 35  1  0  0  0  0
 18 36  1  0  0  0  0
 19 37  1  0  0  0  0
 20 38  1  0  0  0  0
 20 39  1  0  0  0  0
M  CHG  1  12   1
M  END
