4eeh_ligand
 OpenBabel08222323353D

 27 29  0  0  0  0  0  0  0  0999 V2000
   64.5150   33.8730   25.2380 C   0  0  0  0  0  0  0  0  0  0  0  0
   64.0260   34.5900   24.0580 C   0  0  0  0  0  0  0  0  0  0  0  0
   63.3640   33.2990   25.8600 C   0  0  0  0  0  0  0  0  0  0  0  0
   65.7970   33.6420   25.7950 C   0  0  0  0  0  0  0  0  0  0  0  0
   64.7630   35.4940   23.1280 C   0  0  0  0  0  0  0  0  0  0  0  0
   62.7330   34.3890   24.0060 N   0  0  0  0  0  0  0  0  0  0  0  0
   62.2640   33.6840   25.1370 N   0  0  0  0  0  0  0  0  0  0  0  0
   63.5110   32.5470   27.0340 C   0  0  0  0  0  0  0  0  0  0  0  0
   65.9240   32.8590   26.9270 C   0  0  0  0  0  0  0  0  0  0  0  0
   64.0920   36.0360   22.0180 C   0  0  0  0  0  0  0  0  0  0  0  0
   66.0620   35.9500   23.4330 C   0  0  0  0  0  0  0  0  0  0  0  0
   64.7710   32.3600   27.5670 C   0  0  0  0  0  0  0  0  0  0  0  0
   64.7410   36.9450   21.1930 C   0  0  0  0  0  0  0  0  0  0  0  0
   66.7160   36.8310   22.5900 C   0  0  0  0  0  0  0  0  0  0  0  0
   64.8690   31.6640   28.7160 O   0  0  0  0  0  0  0  0  0  0  0  0
   66.0520   37.3410   21.4720 C   0  0  0  0  0  0  0  0  0  0  0  0
   66.6840   38.2270   20.6570 O   0  0  0  0  0  0  0  0  0  0  0  0
   66.6761   34.0782   25.3346 H   0  0  0  0  0  0  0  0  0  0  0  0
   61.2798   33.4946   25.3742 H   0  0  0  0  0  0  0  0  0  0  0  0
   62.6428   32.1160   27.5193 H   0  0  0  0  0  0  0  0  0  0  0  0
   66.9072   32.6293   27.3215 H   0  0  0  0  0  0  0  0  0  0  0  0
   63.0695   35.7448   21.8064 H   0  0  0  0  0  0  0  0  0  0  0  0
   66.5529   35.6071   24.3366 H   0  0  0  0  0  0  0  0  0  0  0  0
   64.2281   37.3496   20.3280 H   0  0  0  0  0  0  0  0  0  0  0  0
   67.7390   37.1241   22.7963 H   0  0  0  0  0  0  0  0  0  0  0  0
   64.0011   31.4071   29.0043 H   0  0  0  0  0  0  0  0  0  0  0  0
   66.1015   38.4754   19.9489 H   0  0  0  0  0  0  0  0  0  0  0  0
  1  2  1  0  0  0  0
  1  3  2  0  0  0  0
  1  4  1  0  0  0  0
  2  5  1  0  0  0  0
  2  6  2  0  0  0  0
  3  7  1  0  0  0  0
  3  8  1  0  0  0  0
  4  9  2  0  0  0  0
  4 18  1  0  0  0  0
  5 10  2  0  0  0  0
  5 11  1  0  0  0  0
  6  7  1  0  0  0  0
  7 19  1  0  0  0  0
  8 12  2  0  0  0  0
  8 20  1  0  0  0  0
  9 12  1  0  0  0  0
  9 21  1  0  0  0  0
 10 13  1  0  0  0  0
 10 22  1  0  0  0  0
 11 14  2  0  0  0  0
 11 23  1  0  0  0  0
 12 15  1  0  0  0  0
 13 16  2  0  0  0  0
 13 24  1  0  0  0  0
 14 16  1  0  0  0  0
 14 25  1  0  0  0  0
 15 26  1  0  0  0  0
 16 17  1  0  0  0  0
 17 27  1  0  0  0  0
M  END
