4ef4_ligand
 OpenBabel08222323353D

 68 74  0  0  1  0  0  0  0  0999 V2000
  -10.8060   18.9340  -15.1560 P   0  0  2  0  0  0  0  0  0  0  0  0
  -10.9240   20.0180  -14.1640 O   0  0  0  0  0  1  0  0  0  0  0  0
   -9.3760   18.9510  -15.6810 O   0  0  0  0  0  0  0  0  0  0  0  0
  -11.6700   19.1510  -16.4650 O   0  0  0  0  0  0  0  0  0  0  0  0
  -13.1360   19.0850  -16.3750 C   0  0  0  0  0  0  0  0  0  0  0  0
  -13.8340   19.0840  -17.6680 C   0  0  1  0  0  0  0  0  0  0  0  0
  -13.5060   20.2500  -18.3440 O   0  0  0  0  0  0  0  0  0  0  0  0
  -13.3460   18.0170  -18.5270 C   0  0  1  0  0  0  0  0  0  0  0  0
  -14.0030   16.7810  -18.1870 O   0  0  0  0  0  0  0  0  0  0  0  0
  -13.7700   18.4570  -19.7690 C   0  0  1  0  0  0  0  0  0  0  0  0
  -15.1220   18.2130  -19.9480 O   0  0  0  0  0  0  0  0  0  0  0  0
  -13.4590   19.9250  -19.7050 C   0  0  2  0  0  0  0  0  0  0  0  0
  -12.1110   20.1310  -20.2530 N   0  0  0  0  0  0  0  0  0  0  0  0
  -10.9150   20.0190  -19.6490 C   0  0  0  0  0  0  0  0  0  0  0  0
   -9.9650   20.2600  -20.5690 N   0  0  0  0  0  0  0  0  0  0  0  0
  -10.5650   20.5140  -21.7590 C   0  0  0  0  0  0  0  0  0  0  0  0
  -10.0950   20.8320  -23.0440 C   0  0  0  0  0  0  0  0  0  0  0  0
   -8.7050   20.9280  -23.2810 O   0  0  0  0  0  0  0  0  0  0  0  0
  -10.9730   21.0470  -24.0330 N   0  0  0  0  0  0  0  0  0  0  0  0
  -12.2860   20.9590  -23.7890 C   0  0  0  0  0  0  0  0  0  0  0  0
  -13.2130   21.1880  -24.8830 N   0  0  0  0  0  0  0  0  0  0  0  0
  -12.7830   20.6540  -22.5700 N   0  0  0  0  0  0  0  0  0  0  0  0
  -11.9390   20.4280  -21.5500 C   0  0  0  0  0  0  0  0  0  0  0  0
  -13.3040   15.3530  -18.2330 P   0  0  1  0  0  0  0  0  0  0  0  0
  -14.2770   14.2460  -18.2180 O   0  0  0  0  0  1  0  0  0  0  0  0
  -12.5590   15.2610  -19.5100 O   0  0  0  0  0  0  0  0  0  0  0  0
  -12.1680   15.1670  -17.0720 O   0  0  0  0  0  0  0  0  0  0  0  0
  -12.5150   14.9390  -15.6910 C   0  0  0  0  0  0  0  0  0  0  0  0
  -11.4830   15.0870  -14.7840 C   0  0  1  0  0  0  0  0  0  0  0  0
  -10.5910   13.8930  -14.8760 O   0  0  0  0  0  0  0  0  0  0  0  0
  -10.5880   16.2200  -15.0910 C   0  0  1  0  0  0  0  0  0  0  0  0
  -11.0200   17.4310  -14.5270 O   0  0  0  0  0  0  0  0  0  0  0  0
   -9.3340   15.7970  -14.4530 C   0  0  1  0  0  0  0  0  0  0  0  0
   -9.3210   16.0870  -13.1200 O   0  0  0  0  0  0  0  0  0  0  0  0
   -9.2900   14.3370  -14.6800 C   0  0  2  0  0  0  0  0  0  0  0  0
   -8.4420   13.9860  -15.8690 N   0  0  0  0  0  0  0  0  0  0  0  0
   -8.8060   14.0140  -17.1680 C   0  0  0  0  0  0  0  0  0  0  0  0
   -7.7510   13.6370  -17.9120 N   0  0  0  0  0  0  0  0  0  0  0  0
   -6.7040   13.3610  -17.0950 C   0  0  0  0  0  0  0  0  0  0  0  0
   -5.3820   12.9370  -17.2620 C   0  0  0  0  0  0  0  0  0  0  0  0
   -4.8540   12.6860  -18.5260 O   0  0  0  0  0  0  0  0  0  0  0  0
   -4.6110   12.7660  -16.1670 N   0  0  0  0  0  0  0  0  0  0  0  0
   -5.1020   13.0010  -14.9370 C   0  0  0  0  0  0  0  0  0  0  0  0
   -4.2700   12.8160  -13.8070 N   0  0  0  0  0  0  0  0  0  0  0  0
   -6.3610   13.4130  -14.7400 N   0  0  0  0  0  0  0  0  0  0  0  0
   -7.1640   13.5950  -15.7960 C   0  0  0  0  0  0  0  0  0  0  0  0
  -13.4830   19.9560  -15.7997 H   0  0  0  0  0  0  0  0  0  0  0  0
  -13.4047   18.1619  -15.8406 H   0  0  0  0  0  0  0  0  0  0  0  0
  -14.9197   18.9989  -17.5131 H   0  0  0  0  0  0  0  0  0  0  0  0
  -12.2532   17.9025  -18.4748 H   0  0  0  0  0  0  0  0  0  0  0  0
  -13.2049   17.9705  -20.5777 H   0  0  0  0  0  0  0  0  0  0  0  0
  -15.2855   17.2794  -19.8831 H   0  0  0  0  0  0  0  0  0  0  0  0
  -14.1933   20.5156  -20.2724 H   0  0  0  0  0  0  0  0  0  0  0  0
  -10.7460   19.7762  -18.6009 H   0  0  0  0  0  0  0  0  0  0  0  0
  -10.6480   21.2727  -24.9514 H   0  0  0  0  0  0  0  0  0  0  0  0
  -14.2280   21.1258  -24.7195 H   0  0  0  0  0  0  0  0  0  0  0  0
  -12.8555   21.4127  -25.8225 H   0  0  0  0  0  0  0  0  0  0  0  0
  -12.8978   13.9115  -15.6034 H   0  0  0  0  0  0  0  0  0  0  0  0
  -13.3088   15.6505  -15.4195 H   0  0  0  0  0  0  0  0  0  0  0  0
  -11.9009   15.1955  -13.7723 H   0  0  0  0  0  0  0  0  0  0  0  0
  -10.4691   16.3440  -16.1775 H   0  0  0  0  0  0  0  0  0  0  0  0
   -8.4752   16.2878  -14.9343 H   0  0  0  0  0  0  0  0  0  0  0  0
   -8.4977   15.8001  -12.7427 H   0  0  0  0  0  0  0  0  0  0  0  0
   -8.8676   13.8479  -13.7899 H   0  0  0  0  0  0  0  0  0  0  0  0
   -9.7870   14.2941  -17.5490 H   0  0  0  0  0  0  0  0  0  0  0  0
   -3.6643   12.4612  -16.2716 H   0  0  0  0  0  0  0  0  0  0  0  0
   -4.6383   12.9938  -12.8617 H   0  0  0  0  0  0  0  0  0  0  0  0
   -3.2963   12.5036  -13.9300 H   0  0  0  0  0  0  0  0  0  0  0  0
  1  2  1  1  0  0  0
  1  3  2  0  0  0  0
  1  4  1  0  0  0  0
  1 32  1  0  0  0  0
  4  5  1  0  0  0  0
  5  6  1  0  0  0  0
  5 47  1  0  0  0  0
  5 48  1  0  0  0  0
  6  7  1  0  0  0  0
  6  8  1  0  0  0  0
  6 49  1  1  0  0  0
  7 12  1  0  0  0  0
  8  9  1  0  0  0  0
  8 10  1  0  0  0  0
  8 50  1  1  0  0  0
  9 24  1  0  0  0  0
 10 11  1  0  0  0  0
 10 12  1  0  0  0  0
 10 51  1  6  0  0  0
 11 52  1  0  0  0  0
 12 13  1  0  0  0  0
 12 53  1  6  0  0  0
 13 14  1  0  0  0  0
 13 23  1  0  0  0  0
 14 15  2  0  0  0  0
 14 54  1  0  0  0  0
 15 16  1  0  0  0  0
 16 17  1  0  0  0  0
 16 23  2  0  0  0  0
 17 18  2  0  0  0  0
 17 19  1  0  0  0  0
 19 20  1  0  0  0  0
 19 55  1  0  0  0  0
 20 21  1  0  0  0  0
 20 22  2  0  0  0  0
 21 56  1  0  0  0  0
 21 57  1  0  0  0  0
 22 23  1  0  0  0  0
 24 25  1  1  0  0  0
 24 26  2  0  0  0  0
 24 27  1  0  0  0  0
 27 28  1  0  0  0  0
 28 29  1  0  0  0  0
 28 58  1  0  0  0  0
 28 59  1  0  0  0  0
 29 30  1  0  0  0  0
 29 31  1  0  0  0  0
 29 60  1  1  0  0  0
 30 35  1  0  0  0  0
 31 32  1  0  0  0  0
 31 33  1  0  0  0  0
 31 61  1  6  0  0  0
 33 34  1  0  0  0  0
 33 35  1  0  0  0  0
 33 62  1  6  0  0  0
 34 63  1  0  0  0  0
 35 36  1  0  0  0  0
 35 64  1  1  0  0  0
 36 37  1  0  0  0  0
 36 46  1  0  0  0  0
 37 38  2  0  0  0  0
 37 65  1  0  0  0  0
 38 39  1  0  0  0  0
 39 40  1  0  0  0  0
 39 46  2  0  0  0  0
 40 41  2  0  0  0  0
 40 42  1  0  0  0  0
 42 43  1  0  0  0  0
 42 66  1  0  0  0  0
 43 44  1  0  0  0  0
 43 45  2  0  0  0  0
 44 67  1  0  0  0  0
 44 68  1  0  0  0  0
 45 46  1  0  0  0  0
M  END
