4eft_ligand
 OpenBabel08222323353D

 39 41  0  0  1  0  0  0  0  0999 V2000
   65.1870   34.2210   24.1670 C   0  0  0  0  0  0  0  0  0  0  0  0
   64.0520   33.9760   24.9560 C   0  0  0  0  0  0  0  0  0  0  0  0
   64.1210   33.4060   26.2170 C   0  0  0  0  0  0  0  0  0  0  0  0
   66.4230   33.9000   24.6560 C   0  0  0  0  0  0  0  0  0  0  0  0
   65.7990   32.4950   27.9210 N   0  0  0  0  0  0  0  0  0  0  0  0
   67.1820   32.4090   27.8850 N   0  0  0  0  0  0  0  0  0  0  0  0
   67.6560   32.8360   26.7330 C   0  0  0  0  0  0  0  0  0  0  0  0
   66.5350   33.3090   25.9350 C   0  0  0  0  0  0  0  0  0  0  0  0
   65.3780   33.0590   26.7340 C   0  0  0  0  0  0  0  0  0  0  0  0
   69.1110   32.9060   26.3380 C   0  0  1  0  0  0  0  0  0  0  0  0
   69.4230   32.2210   25.0000 C   0  0  0  0  0  0  0  0  0  0  0  0
   69.5200   34.3190   26.2950 C   0  0  0  0  0  0  0  0  0  0  0  0
   69.8330   35.4100   26.2960 N   0  0  0  0  0  0  0  0  0  0  0  0
   62.8460   34.2490   24.4420 O   0  0  0  0  0  0  0  0  0  0  0  0
   70.6710   31.3330   25.0240 C   0  0  0  0  0  0  0  0  0  0  0  0
   70.7330   30.6670   23.6440 C   0  0  0  0  0  0  0  0  0  0  0  0
   71.9400   29.7400   23.5150 C   0  0  0  0  0  0  0  0  0  0  0  0
   73.2480   30.5010   23.7840 C   0  0  0  0  0  0  0  0  0  0  0  0
   73.1960   31.1890   25.1620 C   0  0  0  0  0  0  0  0  0  0  0  0
   71.9740   32.1270   25.2580 C   0  0  0  0  0  0  0  0  0  0  0  0
   65.0847   34.6598   23.1811 H   0  0  0  0  0  0  0  0  0  0  0  0
   63.2199   33.2314   26.7936 H   0  0  0  0  0  0  0  0  0  0  0  0
   67.3111   34.0975   24.0666 H   0  0  0  0  0  0  0  0  0  0  0  0
   65.1928   32.1916   28.6965 H   0  0  0  0  0  0  0  0  0  0  0  0
   69.6968   32.3954   27.1165 H   0  0  0  0  0  0  0  0  0  0  0  0
   69.5699   33.0016   24.2390 H   0  0  0  0  0  0  0  0  0  0  0  0
   68.5609   31.5965   24.7231 H   0  0  0  0  0  0  0  0  0  0  0  0
   62.3432   33.4459   24.3731 H   0  0  0  0  0  0  0  0  0  0  0  0
   70.5686   30.5735   25.8130 H   0  0  0  0  0  0  0  0  0  0  0  0
   70.8012   31.4494   22.8738 H   0  0  0  0  0  0  0  0  0  0  0  0
   69.8154   30.0801   23.4904 H   0  0  0  0  0  0  0  0  0  0  0  0
   71.9679   29.3248   22.4967 H   0  0  0  0  0  0  0  0  0  0  0  0
   71.8441   28.9206   24.2426 H   0  0  0  0  0  0  0  0  0  0  0  0
   73.3910   31.2630   23.0037 H   0  0  0  0  0  0  0  0  0  0  0  0
   74.0898   29.7932   23.7639 H   0  0  0  0  0  0  0  0  0  0  0  0
   74.1145   31.7767   25.3070 H   0  0  0  0  0  0  0  0  0  0  0  0
   73.1242   30.4212   25.9464 H   0  0  0  0  0  0  0  0  0  0  0  0
   71.9456   32.5850   26.2577 H   0  0  0  0  0  0  0  0  0  0  0  0
   72.0607   32.9153   24.4958 H   0  0  0  0  0  0  0  0  0  0  0  0
  1  4  1  0  0  0  0
  1 21  1  0  0  0  0
  2  1  2  0  0  0  0
  2 14  1  0  0  0  0
  3  2  1  0  0  0  0
  3 22  1  0  0  0  0
  4  8  2  0  0  0  0
  4 23  1  0  0  0  0
  5  6  1  0  0  0  0
  5  9  1  0  0  0  0
  5 24  1  0  0  0  0
  6  7  2  0  0  0  0
  7  8  1  0  0  0  0
  7 10  1  0  0  0  0
  8  9  1  0  0  0  0
  9  3  2  0  0  0  0
 10 11  1  0  0  0  0
 10 12  1  0  0  0  0
 10 25  1  1  0  0  0
 11 15  1  0  0  0  0
 11 26  1  0  0  0  0
 11 27  1  0  0  0  0
 12 13  3  0  0  0  0
 14 28  1  0  0  0  0
 15 16  1  0  0  0  0
 15 20  1  0  0  0  0
 15 29  1  0  0  0  0
 16 17  1  0  0  0  0
 16 30  1  0  0  0  0
 16 31  1  0  0  0  0
 17 18  1  0  0  0  0
 17 32  1  0  0  0  0
 17 33  1  0  0  0  0
 18 19  1  0  0  0  0
 18 34  1  0  0  0  0
 18 35  1  0  0  0  0
 19 20  1  0  0  0  0
 19 36  1  0  0  0  0
 19 37  1  0  0  0  0
 20 38  1  0  0  0  0
 20 39  1  0  0  0  0
M  END
