4efu_ligand
 OpenBabel08222323353D

 52 55  0  0  0  0  0  0  0  0999 V2000
   -0.8670   11.0920   25.7270 C   0  0  0  0  0  0  0  0  0  0  0  0
   -2.0350   11.4780   25.0190 C   0  0  0  0  0  0  0  0  0  0  0  0
   -1.9520   12.1840   23.8320 C   0  0  0  0  0  0  0  0  0  0  0  0
    0.4070   11.3700   25.1900 C   0  0  0  0  0  0  0  0  0  0  0  0
   -3.2590   11.2620   25.5550 O   0  0  0  0  0  0  0  0  0  0  0  0
   -0.9670   10.3650   27.0270 C   0  0  0  0  0  0  0  0  0  0  0  0
   -0.6750    9.0290   27.1470 N   0  0  0  0  0  0  0  0  0  0  0  0
   -1.2970   11.0130   28.0170 O   0  0  0  0  0  0  0  0  0  0  0  0
    0.4920   12.0110   23.9430 C   0  0  0  0  0  0  0  0  0  0  0  0
   -0.6930   12.4380   23.2730 C   0  0  0  0  0  0  0  0  0  0  0  0
   -0.3000   13.0240   22.1060 N   0  0  0  0  0  0  0  0  0  0  0  0
    1.0920   12.9610   22.0130 N   0  0  0  0  0  0  0  0  0  0  0  0
    1.6040   12.4290   23.0900 C   0  0  0  0  0  0  0  0  0  0  0  0
    3.0700   12.1190   23.2900 C   0  0  0  0  0  0  0  0  0  0  0  0
    3.7460   12.7600   24.4760 C   0  0  0  0  0  0  0  0  0  0  0  0
    4.1470   11.9790   25.5600 C   0  0  0  0  0  0  0  0  0  0  0  0
    5.1760   13.9040   26.6000 C   0  0  0  0  0  0  0  0  0  0  0  0
    4.7870   14.6690   25.5020 C   0  0  0  0  0  0  0  0  0  0  0  0
    4.8740   12.5480   26.6140 C   0  0  0  0  0  0  0  0  0  0  0  0
    4.0760   14.1130   24.4390 C   0  0  0  0  0  0  0  0  0  0  0  0
   -0.7630    8.3780   28.4660 C   0  0  0  0  0  0  0  0  0  0  0  0
   -0.3610    8.1380   26.0060 C   0  0  0  0  0  0  0  0  0  0  0  0
    1.0610    8.1090   25.5040 C   0  0  0  0  0  0  0  0  0  0  0  0
    1.2560    7.8480   24.1460 C   0  0  0  0  0  0  0  0  0  0  0  0
    3.6370    8.0370   24.4320 C   0  0  0  0  0  0  0  0  0  0  0  0
    3.4430    8.3040   25.7870 C   0  0  0  0  0  0  0  0  0  0  0  0
    2.5390    7.8170   23.6040 C   0  0  0  0  0  0  0  0  0  0  0  0
    2.1600    8.3360   26.3330 C   0  0  0  0  0  0  0  0  0  0  0  0
    5.1260   16.1190   25.4630 C   0  0  0  0  0  0  0  0  0  0  0  0
   -2.8513   12.5366   23.3401 H   0  0  0  0  0  0  0  0  0  0  0  0
    1.3053   11.0938   25.7303 H   0  0  0  0  0  0  0  0  0  0  0  0
   -3.6753   12.0963   25.7375 H   0  0  0  0  0  0  0  0  0  0  0  0
   -0.9281   13.4449   21.4065 H   0  0  0  0  0  0  0  0  0  0  0  0
    3.6052   12.4449   22.3860 H   0  0  0  0  0  0  0  0  0  0  0  0
    3.1673   11.0289   23.4008 H   0  0  0  0  0  0  0  0  0  0  0  0
    3.8946   10.9251   25.5871 H   0  0  0  0  0  0  0  0  0  0  0  0
    5.7053   14.3593   27.4292 H   0  0  0  0  0  0  0  0  0  0  0  0
    5.2013   11.9292   27.4417 H   0  0  0  0  0  0  0  0  0  0  0  0
    3.7836   14.7261   23.5942 H   0  0  0  0  0  0  0  0  0  0  0  0
   -0.4956    7.3154   28.3690 H   0  0  0  0  0  0  0  0  0  0  0  0
   -1.7904    8.4640   28.8496 H   0  0  0  0  0  0  0  0  0  0  0  0
   -0.0687    8.8685   29.1641 H   0  0  0  0  0  0  0  0  0  0  0  0
   -0.9992    8.4458   25.1646 H   0  0  0  0  0  0  0  0  0  0  0  0
   -0.6224    7.1133   26.3088 H   0  0  0  0  0  0  0  0  0  0  0  0
    0.3995    7.6675   23.5065 H   0  0  0  0  0  0  0  0  0  0  0  0
    4.6406    8.0008   24.0240 H   0  0  0  0  0  0  0  0  0  0  0  0
    4.3004    8.4890   26.4240 H   0  0  0  0  0  0  0  0  0  0  0  0
    2.6814    7.6233   22.5470 H   0  0  0  0  0  0  0  0  0  0  0  0
    2.0183    8.5349   27.3891 H   0  0  0  0  0  0  0  0  0  0  0  0
    5.6832   16.3898   26.3720 H   0  0  0  0  0  0  0  0  0  0  0  0
    4.2002   16.7107   25.4105 H   0  0  0  0  0  0  0  0  0  0  0  0
    5.7450   16.3272   24.5779 H   0  0  0  0  0  0  0  0  0  0  0  0
  1  2  2  0  0  0  0
  1  4  1  0  0  0  0
  2  3  1  0  0  0  0
  2  5  1  0  0  0  0
  3 10  2  0  0  0  0
  3 30  1  0  0  0  0
  4  9  2  0  0  0  0
  4 31  1  0  0  0  0
  5 32  1  0  0  0  0
  6  1  1  0  0  0  0
  6  8  2  0  0  0  0
  7  6  1  0  0  0  0
  7 21  1  0  0  0  0
  9 10  1  0  0  0  0
  9 13  1  0  0  0  0
 10 11  1  0  0  0  0
 11 33  1  0  0  0  0
 12 11  1  0  0  0  0
 13 12  2  0  0  0  0
 13 14  1  0  0  0  0
 14 15  1  0  0  0  0
 14 34  1  0  0  0  0
 14 35  1  0  0  0  0
 15 16  2  0  0  0  0
 15 20  1  0  0  0  0
 16 19  1  0  0  0  0
 16 36  1  0  0  0  0
 17 37  1  0  0  0  0
 18 17  1  0  0  0  0
 18 29  1  0  0  0  0
 19 17  2  0  0  0  0
 19 38  1  0  0  0  0
 20 18  2  0  0  0  0
 20 39  1  0  0  0  0
 21 40  1  0  0  0  0
 21 41  1  0  0  0  0
 21 42  1  0  0  0  0
 22  7  1  0  0  0  0
 22 43  1  0  0  0  0
 22 44  1  0  0  0  0
 23 22  1  0  0  0  0
 23 28  1  0  0  0  0
 24 23  2  0  0  0  0
 24 45  1  0  0  0  0
 25 26  1  0  0  0  0
 25 27  2  0  0  0  0
 25 46  1  0  0  0  0
 26 28  2  0  0  0  0
 26 47  1  0  0  0  0
 27 24  1  0  0  0  0
 27 48  1  0  0  0  0
 28 49  1  0  0  0  0
 29 50  1  0  0  0  0
 29 51  1  0  0  0  0
 29 52  1  0  0  0  0
M  END
