4eg4_ligand
 OpenBabel08222323353D

 52 54  0  0  0  0  0  0  0  0999 V2000
   45.3670   14.5840   -7.2000 C   0  0  0  0  0  0  0  0  0  0  0  0
   43.9460   15.1390   -7.2500 C   0  0  0  0  0  0  0  0  0  0  0  0
   42.9880   14.0710   -7.0770 O   0  0  0  0  0  0  0  0  0  0  0  0
   41.6410   14.3090   -7.0130 C   0  0  0  0  0  0  0  0  0  0  0  0
   41.0090   15.5750   -7.0380 C   0  0  0  0  0  0  0  0  0  0  0  0
   41.8360   17.3030   -7.1670 Br  0  0  0  0  0  0  0  0  0  0  0  0
   39.6280   15.6410   -6.9670 C   0  0  0  0  0  0  0  0  0  0  0  0
   38.8620   14.5070   -6.8690 C   0  0  0  0  0  0  0  0  0  0  0  0
   36.9870   14.7010   -6.7600 Br  0  0  0  0  0  0  0  0  0  0  0  0
   39.4790   13.2720   -6.8450 C   0  0  0  0  0  0  0  0  0  0  0  0
   40.8620   13.1590   -6.9260 C   0  0  0  0  0  0  0  0  0  0  0  0
   41.3880   11.7110   -6.8650 C   0  0  0  0  0  0  0  0  0  0  0  0
   42.3730   11.2670   -7.8630 N   0  3  0  0  0  0  0  0  0  0  0  0
   42.1860   11.9010   -9.1980 C   0  0  0  0  0  0  0  0  0  0  0  0
   43.0940   11.1550  -10.2080 C   0  0  0  0  0  0  0  0  0  0  0  0
   44.0640   12.0520  -11.0140 C   0  0  0  0  0  0  0  0  0  0  0  0
   43.3070   12.7290  -12.0830 N   0  0  0  0  0  0  0  0  0  0  0  0
   43.8230   13.6370  -12.9140 C   0  0  0  0  0  0  0  0  0  0  0  0
   45.1760   13.6770  -13.2680 C   0  0  0  0  0  0  0  0  0  0  0  0
   45.6530   14.6550  -14.1540 C   0  0  0  0  0  0  0  0  0  0  0  0
   46.8570   14.6900  -14.4520 O   0  0  0  0  0  0  0  0  0  0  0  0
   44.7520   15.5930  -14.6890 C   0  0  0  0  0  0  0  0  0  0  0  0
   45.1780   16.5880  -15.5690 C   0  0  0  0  0  0  0  0  0  0  0  0
   44.2660   17.5070  -16.0820 C   0  0  0  0  0  0  0  0  0  0  0  0
   42.9250   17.4480  -15.7310 C   0  0  0  0  0  0  0  0  0  0  0  0
   42.4950   16.4620  -14.8610 C   0  0  0  0  0  0  0  0  0  0  0  0
   43.4040   15.5470  -14.3380 C   0  0  0  0  0  0  0  0  0  0  0  0
   42.9500   14.5720  -13.4520 N   0  0  0  0  0  0  0  0  0  0  0  0
   46.0864   15.4055   -7.3327 H   0  0  0  0  0  0  0  0  0  0  0  0
   45.5009   13.8459   -8.0045 H   0  0  0  0  0  0  0  0  0  0  0  0
   45.5379   14.1007   -6.2268 H   0  0  0  0  0  0  0  0  0  0  0  0
   43.7788   15.6232   -8.2234 H   0  0  0  0  0  0  0  0  0  0  0  0
   43.8158   15.8780   -6.4457 H   0  0  0  0  0  0  0  0  0  0  0  0
   39.1414   16.6094   -6.9893 H   0  0  0  0  0  0  0  0  0  0  0  0
   38.8749   12.3758   -6.7616 H   0  0  0  0  0  0  0  0  0  0  0  0
   40.5156   11.0472   -6.9558 H   0  0  0  0  0  0  0  0  0  0  0  0
   41.8492   11.5771   -5.8754 H   0  0  0  0  0  0  0  0  0  0  0  0
   42.2927   10.2679   -7.9693 H   0  0  0  0  0  0  0  0  0  0  0  0
   43.2951   11.4961   -7.5264 H   0  0  0  0  0  0  0  0  0  0  0  0
   42.4712   12.9623   -9.1515 H   0  0  0  0  0  0  0  0  0  0  0  0
   41.1339   11.8173   -9.5080 H   0  0  0  0  0  0  0  0  0  0  0  0
   42.4453   10.6279  -10.9231 H   0  0  0  0  0  0  0  0  0  0  0  0
   43.6943   10.4225   -9.6485 H   0  0  0  0  0  0  0  0  0  0  0  0
   44.8576   11.4330  -11.4580 H   0  0  0  0  0  0  0  0  0  0  0  0
   44.5140   12.8024  -10.3474 H   0  0  0  0  0  0  0  0  0  0  0  0
   45.4126   12.7018  -13.7185 H   0  0  0  0  0  0  0  0  0  0  0  0
   45.7428   13.7961  -12.3328 H   0  0  0  0  0  0  0  0  0  0  0  0
   46.2221   16.6461  -15.8544 H   0  0  0  0  0  0  0  0  0  0  0  0
   44.6079   18.2775  -16.7636 H   0  0  0  0  0  0  0  0  0  0  0  0
   42.2213   18.1672  -16.1344 H   0  0  0  0  0  0  0  0  0  0  0  0
   41.4481   16.4020  -14.5862 H   0  0  0  0  0  0  0  0  0  0  0  0
   41.9535   14.5449  -13.1930 H   0  0  0  0  0  0  0  0  0  0  0  0
  1  2  1  0  0  0  0
  1 29  1  0  0  0  0
  1 30  1  0  0  0  0
  1 31  1  0  0  0  0
  2  3  1  0  0  0  0
  2 32  1  0  0  0  0
  2 33  1  0  0  0  0
  3  4  1  0  0  0  0
  4  5  2  0  0  0  0
  4 11  1  0  0  0  0
  5  6  1  0  0  0  0
  5  7  1  0  0  0  0
  7  8  2  0  0  0  0
  7 34  1  0  0  0  0
  8  9  1  0  0  0  0
  8 10  1  0  0  0  0
 10 11  2  0  0  0  0
 10 35  1  0  0  0  0
 11 12  1  0  0  0  0
 12 13  1  0  0  0  0
 12 36  1  0  0  0  0
 12 37  1  0  0  0  0
 13 14  1  0  0  0  0
 13 38  1  0  0  0  0
 13 39  1  0  0  0  0
 14 15  1  0  0  0  0
 14 40  1  0  0  0  0
 14 41  1  0  0  0  0
 15 16  1  0  0  0  0
 15 42  1  0  0  0  0
 15 43  1  0  0  0  0
 16 17  1  0  0  0  0
 16 44  1  0  0  0  0
 16 45  1  0  0  0  0
 17 18  2  0  0  0  0
 18 19  1  0  0  0  0
 18 28  1  0  0  0  0
 19 20  1  0  0  0  0
 19 46  1  0  0  0  0
 19 47  1  0  0  0  0
 20 21  2  0  0  0  0
 20 22  1  0  0  0  0
 22 23  2  0  0  0  0
 22 27  1  0  0  0  0
 23 24  1  0  0  0  0
 23 48  1  0  0  0  0
 24 25  2  0  0  0  0
 24 49  1  0  0  0  0
 25 26  1  0  0  0  0
 25 50  1  0  0  0  0
 26 27  2  0  0  0  0
 26 51  1  0  0  0  0
 27 28  1  0  0  0  0
 28 52  1  0  0  0  0
M  CHG  1  13   1
M  END
