4eg5_ligand
 OpenBabel08222323353D

 45 47  0  0  0  0  0  0  0  0999 V2000
   41.3830  -14.6040    7.1480 C   0  0  0  0  0  0  0  0  0  0  0  0
   40.6960  -15.8050    7.1610 C   0  0  0  0  0  0  0  0  0  0  0  0
   41.5480  -17.2920    7.1470 Cl  0  0  0  0  0  0  0  0  0  0  0  0
   39.3200  -15.8350    7.1700 C   0  0  0  0  0  0  0  0  0  0  0  0
   38.6130  -14.6460    7.1680 C   0  0  0  0  0  0  0  0  0  0  0  0
   36.8890  -14.7690    7.1780 Cl  0  0  0  0  0  0  0  0  0  0  0  0
   39.2820  -13.4210    7.1630 C   0  0  0  0  0  0  0  0  0  0  0  0
   40.6780  -13.4130    7.1360 C   0  0  0  0  0  0  0  0  0  0  0  0
   41.4680  -12.1040    7.1380 C   0  0  0  0  0  0  0  0  0  0  0  0
   41.4720  -11.6790    8.5330 N   0  3  0  0  0  0  0  0  0  0  0  0
   42.8640  -11.8240    9.0170 C   0  0  0  0  0  0  0  0  0  0  0  0
   42.9360  -11.1970   10.4210 C   0  0  0  0  0  0  0  0  0  0  0  0
   43.8160  -12.0140   11.3740 C   0  0  0  0  0  0  0  0  0  0  0  0
   43.0080  -13.0020   12.1080 N   0  0  0  0  0  0  0  0  0  0  0  0
   43.5380  -13.8750   12.9820 C   0  0  0  0  0  0  0  0  0  0  0  0
   44.9050  -13.9050   13.3040 C   0  0  0  0  0  0  0  0  0  0  0  0
   45.4030  -14.8400   14.2240 C   0  0  0  0  0  0  0  0  0  0  0  0
   46.6050  -14.8790   14.5010 O   0  0  0  0  0  0  0  0  0  0  0  0
   44.5300  -15.7530   14.8240 C   0  0  0  0  0  0  0  0  0  0  0  0
   45.0010  -16.7000   15.7360 C   0  0  0  0  0  0  0  0  0  0  0  0
   44.1120  -17.6070   16.3280 C   0  0  0  0  0  0  0  0  0  0  0  0
   42.7510  -17.5910   16.0250 C   0  0  0  0  0  0  0  0  0  0  0  0
   42.2900  -16.6430   15.1150 C   0  0  0  0  0  0  0  0  0  0  0  0
   43.1670  -15.7330   14.5140 C   0  0  0  0  0  0  0  0  0  0  0  0
   42.6750  -14.7980   13.5960 N   0  0  0  0  0  0  0  0  0  0  0  0
   42.4670  -14.5959    7.1472 H   0  0  0  0  0  0  0  0  0  0  0  0
   38.7944  -16.7830    7.1786 H   0  0  0  0  0  0  0  0  0  0  0  0
   38.7264  -12.4903    7.1798 H   0  0  0  0  0  0  0  0  0  0  0  0
   40.9751  -11.3520    6.5044 H   0  0  0  0  0  0  0  0  0  0  0  0
   42.4947  -12.2695    6.7796 H   0  0  0  0  0  0  0  0  0  0  0  0
   40.8531  -12.2610    9.0754 H   0  0  0  0  0  0  0  0  0  0  0  0
   41.1777  -10.7176    8.6043 H   0  0  0  0  0  0  0  0  0  0  0  0
   43.5538  -11.3022    8.3374 H   0  0  0  0  0  0  0  0  0  0  0  0
   43.1346  -12.8890    9.0675 H   0  0  0  0  0  0  0  0  0  0  0  0
   41.9193  -11.1416   10.8371 H   0  0  0  0  0  0  0  0  0  0  0  0
   43.3529  -10.1827   10.3354 H   0  0  0  0  0  0  0  0  0  0  0  0
   44.2972  -11.3349   12.0932 H   0  0  0  0  0  0  0  0  0  0  0  0
   44.5880  -12.5391   10.7923 H   0  0  0  0  0  0  0  0  0  0  0  0
   45.1567  -12.9100   13.6996 H   0  0  0  0  0  0  0  0  0  0  0  0
   45.4465  -14.0725   12.3613 H   0  0  0  0  0  0  0  0  0  0  0  0
   46.0552  -16.7334   15.9861 H   0  0  0  0  0  0  0  0  0  0  0  0
   44.4899  -18.3358   17.0358 H   0  0  0  0  0  0  0  0  0  0  0  0
   42.0700  -18.2976   16.4855 H   0  0  0  0  0  0  0  0  0  0  0  0
   41.2350  -16.6094   14.8682 H   0  0  0  0  0  0  0  0  0  0  0  0
   41.6705  -14.7865   13.3684 H   0  0  0  0  0  0  0  0  0  0  0  0
  1  2  2  0  0  0  0
  1  8  1  0  0  0  0
  1 26  1  0  0  0  0
  2  3  1  0  0  0  0
  2  4  1  0  0  0  0
  4  5  2  0  0  0  0
  4 27  1  0  0  0  0
  5  6  1  0  0  0  0
  5  7  1  0  0  0  0
  7  8  2  0  0  0  0
  7 28  1  0  0  0  0
  8  9  1  0  0  0  0
  9 10  1  0  0  0  0
  9 29  1  0  0  0  0
  9 30  1  0  0  0  0
 10 11  1  0  0  0  0
 10 31  1  0  0  0  0
 10 32  1  0  0  0  0
 11 12  1  0  0  0  0
 11 33  1  0  0  0  0
 11 34  1  0  0  0  0
 12 13  1  0  0  0  0
 12 35  1  0  0  0  0
 12 36  1  0  0  0  0
 13 14  1  0  0  0  0
 13 37  1  0  0  0  0
 13 38  1  0  0  0  0
 14 15  2  0  0  0  0
 15 16  1  0  0  0  0
 15 25  1  0  0  0  0
 16 17  1  0  0  0  0
 16 39  1  0  0  0  0
 16 40  1  0  0  0  0
 17 18  2  0  0  0  0
 17 19  1  0  0  0  0
 19 20  2  0  0  0  0
 19 24  1  0  0  0  0
 20 21  1  0  0  0  0
 20 41  1  0  0  0  0
 21 22  2  0  0  0  0
 21 42  1  0  0  0  0
 22 23  1  0  0  0  0
 22 43  1  0  0  0  0
 23 24  2  0  0  0  0
 23 44  1  0  0  0  0
 24 25  1  0  0  0  0
 25 45  1  0  0  0  0
M  CHG  1  10   1
M  END
