4eg6_ligand
 OpenBabel08222323353D

 56 60  0  0  0  0  0  0  0  0999 V2000
  -41.1970  -16.4830   -6.9680 Cl  0  0  0  0  0  0  0  0  0  0  0  0
  -40.1100  -15.1480   -7.0030 C   0  0  0  0  0  0  0  0  0  0  0  0
  -38.7440  -15.3350   -7.1320 C   0  0  0  0  0  0  0  0  0  0  0  0
  -37.9010  -14.2240   -7.1680 C   0  0  0  0  0  0  0  0  0  0  0  0
  -36.5590  -14.3670   -7.2930 O   0  0  0  0  0  0  0  0  0  0  0  0
  -36.1660  -15.6620   -6.8640 C   0  0  0  0  0  0  0  0  0  0  0  0
  -38.4370  -12.9450   -7.0890 C   0  0  0  0  0  0  0  0  0  0  0  0
  -39.8090  -12.7690   -6.9550 C   0  0  0  0  0  0  0  0  0  0  0  0
  -40.6420  -13.8810   -6.9220 C   0  0  0  0  0  0  0  0  0  0  0  0
  -41.9870  -13.7720   -6.7770 O   0  0  0  0  0  0  0  0  0  0  0  0
  -42.7500  -13.5470   -7.8700 C   0  0  0  0  0  0  0  0  0  0  0  0
  -42.2420  -13.1530   -9.1130 C   0  0  0  0  0  0  0  0  0  0  0  0
  -44.0670  -13.6970   -7.7210 N   0  0  0  0  0  0  0  0  0  0  0  0
  -44.8970  -13.4770   -8.7490 C   0  0  0  0  0  0  0  0  0  0  0  0
  -46.2600  -13.6590   -8.5810 N   0  0  0  0  0  0  0  0  0  0  0  0
  -46.8070  -13.8120   -7.2070 C   0  0  0  0  0  0  0  0  0  0  0  0
  -47.1130  -13.7490   -9.8000 C   0  0  0  0  0  0  0  0  0  0  0  0
  -48.5220  -13.3020   -9.4580 C   0  0  0  0  0  0  0  0  0  0  0  0
  -48.9970  -14.2030   -8.3850 N   0  0  0  0  0  0  0  0  0  0  0  0
  -48.1730  -14.4650   -7.2850 C   0  0  0  0  0  0  0  0  0  0  0  0
  -48.5580  -15.2060   -6.3870 O   0  0  0  0  0  0  0  0  0  0  0  0
  -44.4400  -13.1070   -9.9490 N   0  0  0  0  0  0  0  0  0  0  0  0
  -43.1360  -12.9400  -10.1570 C   0  0  0  0  0  0  0  0  0  0  0  0
  -42.7170  -12.5710  -11.3560 N   0  0  0  0  0  0  0  0  0  0  0  0
  -43.6600  -12.4520  -12.4800 C   0  0  0  0  0  0  0  0  0  0  0  0
  -43.6800  -13.7170  -13.3230 C   0  0  0  0  0  0  0  0  0  0  0  0
  -44.7540  -14.1810  -13.9490 N   0  0  0  0  0  0  0  0  0  0  0  0
  -44.4220  -15.3010  -14.5820 C   0  0  0  0  0  0  0  0  0  0  0  0
  -45.1520  -16.1840  -15.3730 C   0  0  0  0  0  0  0  0  0  0  0  0
  -44.5170  -17.2940  -15.9180 C   0  0  0  0  0  0  0  0  0  0  0  0
  -43.1630  -17.5150  -15.6640 C   0  0  0  0  0  0  0  0  0  0  0  0
  -42.4340  -16.6300  -14.8780 C   0  0  0  0  0  0  0  0  0  0  0  0
  -43.0750  -15.5270  -14.3330 C   0  0  0  0  0  0  0  0  0  0  0  0
  -42.6540  -14.5360  -13.5590 N   0  0  0  0  0  0  0  0  0  0  0  0
  -38.3334  -16.3356   -7.2044 H   0  0  0  0  0  0  0  0  0  0  0  0
  -35.0762  -15.7681   -6.9692 H   0  0  0  0  0  0  0  0  0  0  0  0
  -36.6695  -16.4211   -7.4807 H   0  0  0  0  0  0  0  0  0  0  0  0
  -36.4477  -15.8002   -5.8097 H   0  0  0  0  0  0  0  0  0  0  0  0
  -37.7831  -12.0815   -7.1320 H   0  0  0  0  0  0  0  0  0  0  0  0
  -40.2264  -11.7717   -6.8768 H   0  0  0  0  0  0  0  0  0  0  0  0
  -41.1765  -13.0170   -9.2588 H   0  0  0  0  0  0  0  0  0  0  0  0
  -46.8985  -12.8227   -6.7350 H   0  0  0  0  0  0  0  0  0  0  0  0
  -46.1314  -14.4421   -6.6099 H   0  0  0  0  0  0  0  0  0  0  0  0
  -47.1339  -14.7888  -10.1583 H   0  0  0  0  0  0  0  0  0  0  0  0
  -46.7014  -13.0985  -10.5858 H   0  0  0  0  0  0  0  0  0  0  0  0
  -49.1726  -13.3859  -10.3410 H   0  0  0  0  0  0  0  0  0  0  0  0
  -48.5155  -12.2603   -9.1049 H   0  0  0  0  0  0  0  0  0  0  0  0
  -49.9026  -14.6227   -8.4456 H   0  0  0  0  0  0  0  0  0  0  0  0
  -41.7190  -12.3644  -11.5050 H   0  0  0  0  0  0  0  0  0  0  0  0
  -43.3574  -11.6048  -13.1130 H   0  0  0  0  0  0  0  0  0  0  0  0
  -44.6696  -12.2707  -12.0827 H   0  0  0  0  0  0  0  0  0  0  0  0
  -45.6877  -13.7462  -13.9449 H   0  0  0  0  0  0  0  0  0  0  0  0
  -46.2048  -16.0077  -15.5619 H   0  0  0  0  0  0  0  0  0  0  0  0
  -45.0729  -17.9868  -16.5394 H   0  0  0  0  0  0  0  0  0  0  0  0
  -42.6741  -18.3865  -16.0842 H   0  0  0  0  0  0  0  0  0  0  0  0
  -41.3793  -16.7994  -14.6935 H   0  0  0  0  0  0  0  0  0  0  0  0
  1  2  1  0  0  0  0
  2  3  2  0  0  0  0
  2  9  1  0  0  0  0
  3  4  1  0  0  0  0
  3 35  1  0  0  0  0
  4  5  1  0  0  0  0
  4  7  2  0  0  0  0
  5  6  1  0  0  0  0
  6 36  1  0  0  0  0
  6 37  1  0  0  0  0
  6 38  1  0  0  0  0
  7  8  1  0  0  0  0
  7 39  1  0  0  0  0
  8  9  2  0  0  0  0
  8 40  1  0  0  0  0
  9 10  1  0  0  0  0
 10 11  1  0  0  0  0
 11 12  2  0  0  0  0
 11 13  1  0  0  0  0
 12 23  1  0  0  0  0
 12 41  1  0  0  0  0
 13 14  2  0  0  0  0
 14 15  1  0  0  0  0
 14 22  1  0  0  0  0
 15 16  1  0  0  0  0
 15 17  1  0  0  0  0
 16 20  1  0  0  0  0
 16 42  1  0  0  0  0
 16 43  1  0  0  0  0
 17 18  1  0  0  0  0
 17 44  1  0  0  0  0
 17 45  1  0  0  0  0
 18 19  1  0  0  0  0
 18 46  1  0  0  0  0
 18 47  1  0  0  0  0
 19 20  1  0  0  0  0
 19 48  1  0  0  0  0
 20 21  2  0  0  0  0
 22 23  2  0  0  0  0
 23 24  1  0  0  0  0
 24 25  1  0  0  0  0
 24 49  1  0  0  0  0
 25 26  1  0  0  0  0
 25 50  1  0  0  0  0
 25 51  1  0  0  0  0
 26 27  1  0  0  0  0
 26 34  2  0  0  0  0
 27 28  1  0  0  0  0
 27 52  1  0  0  0  0
 28 29  2  0  0  0  0
 28 33  1  0  0  0  0
 29 30  1  0  0  0  0
 29 53  1  0  0  0  0
 30 31  2  0  0  0  0
 30 54  1  0  0  0  0
 31 32  1  0  0  0  0
 31 55  1  0  0  0  0
 32 33  2  0  0  0  0
 32 56  1  0  0  0  0
 33 34  1  0  0  0  0
M  END
