4egh_ligand
 OpenBabel08222323353D

 28 29  0  0  0  0  0  0  0  0999 V2000
    2.4340   10.3740  -27.0160 O   0  0  0  0  0  0  0  0  0  0  0  0
    1.6450    9.8560  -26.1860 C   0  0  0  0  0  0  0  0  0  0  0  0
    0.9840    8.7040  -26.3730 N   0  0  0  0  0  0  0  0  0  0  0  0
    0.0820    8.0620  -25.3980 C   0  0  0  0  0  0  0  0  0  0  0  0
    0.4610    6.5910  -25.3700 C   0  0  0  0  0  0  0  0  0  0  0  0
    0.2990    6.0090  -26.6660 O   0  0  0  0  0  0  0  0  0  0  0  0
    1.3040    6.4990  -27.4980 C   0  0  0  0  0  0  0  0  0  0  0  0
    0.9830    7.9890  -27.6430 C   0  0  0  0  0  0  0  0  0  0  0  0
    1.4330   10.6070  -24.9210 C   0  0  0  0  0  0  0  0  0  0  0  0
    0.1960   11.0460  -24.4830 C   0  0  0  0  0  0  0  0  0  0  0  0
    0.0640   11.7650  -23.2700 C   0  0  0  0  0  0  0  0  0  0  0  0
    1.2060   12.0480  -22.4790 C   0  0  0  0  0  0  0  0  0  0  0  0
    1.1800   12.6790  -21.2830 O   0  0  0  0  0  0  0  0  0  0  0  0
    2.4610   11.6090  -22.9480 C   0  0  0  0  0  0  0  0  0  0  0  0
    2.5420   10.9210  -24.1600 C   0  0  0  0  0  0  0  0  0  0  0  0
   -0.9653    8.1794  -25.7133 H   0  0  0  0  0  0  0  0  0  0  0  0
    0.2174    8.5091  -24.4021 H   0  0  0  0  0  0  0  0  0  0  0  0
   -0.1854    6.0639  -24.6528 H   0  0  0  0  0  0  0  0  0  0  0  0
    1.5112    6.4933  -25.0577 H   0  0  0  0  0  0  0  0  0  0  0  0
    1.2782    5.9979  -28.4769 H   0  0  0  0  0  0  0  0  0  0  0  0
    2.2935    6.3566  -27.0392 H   0  0  0  0  0  0  0  0  0  0  0  0
    1.7360    8.4460  -28.3019 H   0  0  0  0  0  0  0  0  0  0  0  0
   -0.0128    8.0890  -28.0995 H   0  0  0  0  0  0  0  0  0  0  0  0
   -0.6858   10.8363  -25.0776 H   0  0  0  0  0  0  0  0  0  0  0  0
   -0.9143   12.1003  -22.9450 H   0  0  0  0  0  0  0  0  0  0  0  0
    2.0651   12.7533  -20.9461 H   0  0  0  0  0  0  0  0  0  0  0  0
    3.3576   11.8045  -22.3710 H   0  0  0  0  0  0  0  0  0  0  0  0
    3.5191   10.6197  -24.5200 H   0  0  0  0  0  0  0  0  0  0  0  0
  1  2  2  0  0  0  0
  2  3  1  0  0  0  0
  2  9  1  0  0  0  0
  3  4  1  0  0  0  0
  3  8  1  0  0  0  0
  4  5  1  0  0  0  0
  4 16  1  0  0  0  0
  4 17  1  0  0  0  0
  5  6  1  0  0  0  0
  5 18  1  0  0  0  0
  5 19  1  0  0  0  0
  6  7  1  0  0  0  0
  7  8  1  0  0  0  0
  7 20  1  0  0  0  0
  7 21  1  0  0  0  0
  8 22  1  0  0  0  0
  8 23  1  0  0  0  0
  9 10  2  0  0  0  0
  9 15  1  0  0  0  0
 10 11  1  0  0  0  0
 10 24  1  0  0  0  0
 11 12  2  0  0  0  0
 11 25  1  0  0  0  0
 12 13  1  0  0  0  0
 12 14  1  0  0  0  0
 13 26  1  0  0  0  0
 14 15  2  0  0  0  0
 14 27  1  0  0  0  0
 15 28  1  0  0  0  0
M  END
