4egi_ligand
 OpenBabel08222323353D

 15 15  0  0  0  0  0  0  0  0999 V2000
   10.1580   -8.2030   13.7490 S   0  0  0  0  0  0  0  0  0  0  0  0
    9.9820   -6.5920   13.2920 C   0  0  0  0  0  0  0  0  0  0  0  0
    8.7850   -6.0230   13.2880 N   0  0  0  0  0  0  0  0  0  0  0  0
   11.0460   -5.8960   12.9070 N   0  0  0  0  0  0  0  0  0  0  0  0
   10.9370   -4.5930   12.5470 C   0  0  0  0  0  0  0  0  0  0  0  0
   12.1600   -3.8220   12.0650 C   0  0  0  0  0  0  0  0  0  0  0  0
    9.7290   -4.0600   12.5350 N   0  0  0  0  0  0  0  0  0  0  0  0
    8.6420   -4.7480   12.9260 C   0  0  0  0  0  0  0  0  0  0  0  0
    7.4290   -4.2190   12.9290 N   0  0  0  0  0  0  0  0  0  0  0  0
    7.9824   -6.5545   13.5588 H   0  0  0  0  0  0  0  0  0  0  0  0
   11.9417   -6.3400   12.8822 H   0  0  0  0  0  0  0  0  0  0  0  0
   11.8700   -2.7891   11.8222 H   0  0  0  0  0  0  0  0  0  0  0  0
   12.5698   -4.3084   11.1675 H   0  0  0  0  0  0  0  0  0  0  0  0
   12.9229   -3.8119   12.8574 H   0  0  0  0  0  0  0  0  0  0  0  0
    7.2981   -3.2567   12.6588 H   0  0  0  0  0  0  0  0  0  0  0  0
  1  2  2  0  0  0  0
  2  3  1  0  0  0  0
  2  4  1  0  0  0  0
  3  8  1  0  0  0  0
  3 10  1  0  0  0  0
  4  5  1  0  0  0  0
  4 11  1  0  0  0  0
  5  6  1  0  0  0  0
  5  7  2  0  0  0  0
  6 12  1  0  0  0  0
  6 13  1  0  0  0  0
  6 14  1  0  0  0  0
  7  8  1  0  0  0  0
  8  9  2  0  0  0  0
  9 15  1  0  0  0  0
M  END
