4eh4_ligand
 OpenBabel08222323353D

 29 30  0  0  0  0  0  0  0  0999 V2000
    2.0420   -0.4240   21.9530 C   0  0  0  0  0  0  0  0  0  0  0  0
    1.3370    0.7370   22.7150 C   0  0  0  0  0  0  0  0  0  0  0  0
    2.1730    2.0310   22.7960 C   0  0  0  0  0  0  0  0  0  0  0  0
    2.5070    2.5040   21.3730 C   0  0  0  0  0  0  0  0  0  0  0  0
    3.2540    1.4290   20.5250 C   0  0  0  0  0  0  0  0  0  0  0  0
    2.8790   -0.0170   20.7460 N   0  0  0  0  0  0  0  0  0  0  0  0
    3.3360   -1.0150   19.8870 C   0  0  0  0  0  0  0  0  0  0  0  0
    2.9850   -2.1820   20.0790 O   0  0  0  0  0  0  0  0  0  0  0  0
    4.2060   -0.7650   18.6270 C   0  0  0  0  0  0  0  0  0  0  0  0
    3.6610   -0.9630   17.3530 C   0  0  0  0  0  0  0  0  0  0  0  0
    4.4320   -0.7120   16.2050 C   0  0  0  0  0  0  0  0  0  0  0  0
    5.7540   -0.2840   16.3010 C   0  0  0  0  0  0  0  0  0  0  0  0
    6.2990   -0.1050   17.5710 C   0  0  0  0  0  0  0  0  0  0  0  0
    5.5440   -0.3560   18.7280 C   0  0  0  0  0  0  0  0  0  0  0  0
    1.2644   -1.1196   21.6046 H   0  0  0  0  0  0  0  0  0  0  0  0
    2.7042   -0.9403   22.6636 H   0  0  0  0  0  0  0  0  0  0  0  0
    1.1225    0.3988   23.7395 H   0  0  0  0  0  0  0  0  0  0  0  0
    0.3929    0.9666   22.1994 H   0  0  0  0  0  0  0  0  0  0  0  0
    3.1046    1.8338   23.3467 H   0  0  0  0  0  0  0  0  0  0  0  0
    1.5968    2.8097   23.3172 H   0  0  0  0  0  0  0  0  0  0  0  0
    3.1439    3.3981   21.4427 H   0  0  0  0  0  0  0  0  0  0  0  0
    1.5680    2.7617   20.8613 H   0  0  0  0  0  0  0  0  0  0  0  0
    4.3282    1.5274   20.7403 H   0  0  0  0  0  0  0  0  0  0  0  0
    3.0699    1.6589   19.4652 H   0  0  0  0  0  0  0  0  0  0  0  0
    2.6396   -1.3115   17.2513 H   0  0  0  0  0  0  0  0  0  0  0  0
    3.9892   -0.8543   15.2258 H   0  0  0  0  0  0  0  0  0  0  0  0
    6.3435   -0.0951   15.4111 H   0  0  0  0  0  0  0  0  0  0  0  0
    7.3241    0.2341   17.6674 H   0  0  0  0  0  0  0  0  0  0  0  0
    5.9977   -0.2330   19.7048 H   0  0  0  0  0  0  0  0  0  0  0  0
  1  2  1  0  0  0  0
  1  6  1  0  0  0  0
  1 15  1  0  0  0  0
  1 16  1  0  0  0  0
  2  3  1  0  0  0  0
  2 17  1  0  0  0  0
  2 18  1  0  0  0  0
  3  4  1  0  0  0  0
  3 19  1  0  0  0  0
  3 20  1  0  0  0  0
  4  5  1  0  0  0  0
  4 21  1  0  0  0  0
  4 22  1  0  0  0  0
  5  6  1  0  0  0  0
  5 23  1  0  0  0  0
  5 24  1  0  0  0  0
  6  7  1  0  0  0  0
  7  8  2  0  0  0  0
  7  9  1  0  0  0  0
  9 10  2  0  0  0  0
  9 14  1  0  0  0  0
 10 11  1  0  0  0  0
 10 25  1  0  0  0  0
 11 12  2  0  0  0  0
 11 26  1  0  0  0  0
 12 13  1  0  0  0  0
 12 27  1  0  0  0  0
 13 14  2  0  0  0  0
 13 28  1  0  0  0  0
 14 29  1  0  0  0  0
M  END
