4eh5_ligand
 OpenBabel08222323353D

 27 28  0  0  0  0  0  0  0  0999 V2000
   -4.0120   -1.3510  -17.5390 C   0  0  0  0  0  0  0  0  0  0  0  0
   -4.4750   -1.1260  -16.2460 C   0  0  0  0  0  0  0  0  0  0  0  0
   -5.7260   -0.5470  -16.0400 C   0  0  0  0  0  0  0  0  0  0  0  0
   -6.5260   -0.1930  -17.1280 C   0  0  0  0  0  0  0  0  0  0  0  0
   -6.0650   -0.4210  -18.4230 C   0  0  0  0  0  0  0  0  0  0  0  0
   -4.8100   -0.9990  -18.6240 C   0  0  0  0  0  0  0  0  0  0  0  0
   -4.3460   -1.2160  -19.9150 C   0  0  0  0  0  0  0  0  0  0  0  0
   -4.9490   -0.5080  -21.0230 O   0  0  0  0  0  0  0  0  0  0  0  0
   -4.1190   -0.3170  -22.0930 C   0  0  0  0  0  0  0  0  0  0  0  0
   -3.8890   -1.2210  -22.8970 O   0  0  0  0  0  0  0  0  0  0  0  0
   -3.5140    1.0640  -22.2980 C   0  0  0  0  0  0  0  0  0  0  0  0
   -2.5570    1.5410  -21.4040 C   0  0  0  0  0  0  0  0  0  0  0  0
   -2.0270    2.8040  -21.6190 C   0  0  0  0  0  0  0  0  0  0  0  0
   -2.4860    3.5230  -22.7180 C   0  0  0  0  0  0  0  0  0  0  0  0
   -3.4070    3.0520  -23.5500 N   0  0  0  0  0  0  0  0  0  0  0  0
   -3.9320    1.8480  -23.3750 C   0  0  0  0  0  0  0  0  0  0  0  0
   -3.0372   -1.7970  -17.7001 H   0  0  0  0  0  0  0  0  0  0  0  0
   -3.8608   -1.4019  -15.3965 H   0  0  0  0  0  0  0  0  0  0  0  0
   -6.0794   -0.3708  -15.0305 H   0  0  0  0  0  0  0  0  0  0  0  0
   -7.4992    0.2562  -16.9664 H   0  0  0  0  0  0  0  0  0  0  0  0
   -6.6800   -0.1499  -19.2735 H   0  0  0  0  0  0  0  0  0  0  0  0
   -4.4653   -2.2901  -20.1203 H   0  0  0  0  0  0  0  0  0  0  0  0
   -3.2765   -0.9589  -19.9167 H   0  0  0  0  0  0  0  0  0  0  0  0
   -2.2351    0.9395  -20.5616 H   0  0  0  0  0  0  0  0  0  0  0  0
   -1.2791    3.2179  -20.9523 H   0  0  0  0  0  0  0  0  0  0  0  0
   -2.0745    4.5087  -22.9026 H   0  0  0  0  0  0  0  0  0  0  0  0
   -4.6811    1.4742  -24.0636 H   0  0  0  0  0  0  0  0  0  0  0  0
  1  2  2  0  0  0  0
  1  6  1  0  0  0  0
  1 17  1  0  0  0  0
  2  3  1  0  0  0  0
  2 18  1  0  0  0  0
  3  4  2  0  0  0  0
  3 19  1  0  0  0  0
  4  5  1  0  0  0  0
  4 20  1  0  0  0  0
  5  6  2  0  0  0  0
  5 21  1  0  0  0  0
  6  7  1  0  0  0  0
  7  8  1  0  0  0  0
  7 22  1  0  0  0  0
  7 23  1  0  0  0  0
  8  9  1  0  0  0  0
  9 10  2  0  0  0  0
  9 11  1  0  0  0  0
 11 12  2  0  0  0  0
 11 16  1  0  0  0  0
 12 13  1  0  0  0  0
 12 24  1  0  0  0  0
 13 14  2  0  0  0  0
 13 25  1  0  0  0  0
 14 15  1  0  0  0  0
 14 26  1  0  0  0  0
 15 16  2  0  0  0  0
 16 27  1  0  0  0  0
M  END
