4eo4_ligand
 OpenBabel08222323353D

 49 51  0  0  1  0  0  0  0  0999 V2000
   26.1850  -18.8060  -53.0590 N   0  3  0  0  0  0  0  0  0  0  0  0
   25.7190  -17.4490  -53.0160 C   0  0  1  0  0  0  0  0  0  0  0  0
   24.9820  -17.1660  -54.2650 C   0  0  0  0  0  0  0  0  0  0  0  0
   25.4660  -17.7760  -55.4340 O   0  0  0  0  0  0  0  0  0  0  0  0
   24.7820  -17.2420  -51.8220 C   0  0  0  0  0  0  0  0  0  0  0  0
   24.8380  -18.0450  -50.8490 O   0  0  0  0  0  0  0  0  0  0  0  0
   23.8300  -16.1490  -51.8050 N   0  0  0  0  0  0  0  0  0  0  0  0
   22.8610  -15.9810  -50.4860 S   0  0  0  0  0  0  0  0  0  0  0  0
   22.4260  -14.6060  -50.3250 O   0  0  0  0  0  0  0  0  0  0  0  0
   23.5850  -16.1980  -49.2630 O   0  0  0  0  0  0  0  0  0  0  0  0
   21.7080  -16.9140  -50.5870 O   0  0  0  0  0  0  0  0  0  0  0  0
   21.0990  -17.1570  -51.8470 C   0  0  0  0  0  0  0  0  0  0  0  0
   19.6090  -17.3410  -51.7120 C   0  0  1  0  0  0  0  0  0  0  0  0
   19.3320  -18.6090  -51.0670 O   0  0  0  0  0  0  0  0  0  0  0  0
   18.8920  -16.3140  -50.8500 C   0  0  1  0  0  0  0  0  0  0  0  0
   18.5880  -15.1210  -51.5490 O   0  0  0  0  0  0  0  0  0  0  0  0
   17.6630  -17.0680  -50.3670 C   0  0  1  0  0  0  0  0  0  0  0  0
   16.6540  -17.0800  -51.3660 O   0  0  0  0  0  0  0  0  0  0  0  0
   18.2170  -18.4860  -50.2150 C   0  0  2  0  0  0  0  0  0  0  0  0
   18.6570  -18.7600  -48.8350 N   0  0  0  0  0  0  0  0  0  0  0  0
   19.6860  -18.2260  -48.1060 C   0  0  0  0  0  0  0  0  0  0  0  0
   19.7070  -18.7800  -46.8730 N   0  0  0  0  0  0  0  0  0  0  0  0
   18.6660  -19.6980  -46.8110 C   0  0  0  0  0  0  0  0  0  0  0  0
   18.1810  -20.5940  -45.7810 C   0  0  0  0  0  0  0  0  0  0  0  0
   18.8250  -20.6480  -44.4900 N   0  0  0  0  0  0  0  0  0  0  0  0
   17.1240  -21.3790  -46.0310 N   0  0  0  0  0  0  0  0  0  0  0  0
   16.5100  -21.3300  -47.2570 C   0  0  0  0  0  0  0  0  0  0  0  0
   16.9360  -20.5040  -48.2450 N   0  0  0  0  0  0  0  0  0  0  0  0
   18.0230  -19.6810  -48.0290 C   0  0  0  0  0  0  0  0  0  0  0  0
   26.7994  -18.9254  -53.8491 H   0  0  0  0  0  0  0  0  0  0  0  0
   25.3977  -19.4290  -53.1485 H   0  0  0  0  0  0  0  0  0  0  0  0
   26.6852  -19.0166  -52.2096 H   0  0  0  0  0  0  0  0  0  0  0  0
   26.5783  -16.7679  -52.9283 H   0  0  0  0  0  0  0  0  0  0  0  0
   25.0011  -16.0778  -54.4243 H   0  0  0  0  0  0  0  0  0  0  0  0
   23.9430  -17.4974  -54.1216 H   0  0  0  0  0  0  0  0  0  0  0  0
   25.4451  -18.7200  -55.3292 H   0  0  0  0  0  0  0  0  0  0  0  0
   23.7640  -15.5139  -52.5746 H   0  0  0  0  0  0  0  0  0  0  0  0
   21.5337  -18.0677  -52.2848 H   0  0  0  0  0  0  0  0  0  0  0  0
   21.2952  -16.3016  -52.5101 H   0  0  0  0  0  0  0  0  0  0  0  0
   19.1732  -17.3255  -52.7218 H   0  0  0  0  0  0  0  0  0  0  0  0
   19.5224  -16.0458  -49.9894 H   0  0  0  0  0  0  0  0  0  0  0  0
   18.0251  -15.3225  -52.2872 H   0  0  0  0  0  0  0  0  0  0  0  0
   17.2717  -16.6627  -49.4223 H   0  0  0  0  0  0  0  0  0  0  0  0
   16.4044  -16.1871  -51.5731 H   0  0  0  0  0  0  0  0  0  0  0  0
   17.4419  -19.2126  -50.4999 H   0  0  0  0  0  0  0  0  0  0  0  0
   20.3821  -17.4695  -48.4652 H   0  0  0  0  0  0  0  0  0  0  0  0
   18.4720  -21.2886  -43.7648 H   0  0  0  0  0  0  0  0  0  0  0  0
   19.6374  -20.0459  -44.2941 H   0  0  0  0  0  0  0  0  0  0  0  0
   15.6566  -21.9723  -47.4421 H   0  0  0  0  0  0  0  0  0  0  0  0
  1  2  1  0  0  0  0
  1 30  1  0  0  0  0
  1 31  1  0  0  0  0
  1 32  1  0  0  0  0
  2  3  1  0  0  0  0
  2  5  1  0  0  0  0
  2 33  1  1  0  0  0
  3  4  1  0  0  0  0
  3 34  1  0  0  0  0
  3 35  1  0  0  0  0
  4 36  1  0  0  0  0
  5  6  2  0  0  0  0
  5  7  1  0  0  0  0
  7  8  1  0  0  0  0
  7 37  1  0  0  0  0
  8  9  2  0  0  0  0
  8 10  2  0  0  0  0
  8 11  1  0  0  0  0
 11 12  1  0  0  0  0
 12 13  1  0  0  0  0
 12 38  1  0  0  0  0
 12 39  1  0  0  0  0
 13 14  1  0  0  0  0
 13 15  1  0  0  0  0
 13 40  1  6  0  0  0
 14 19  1  0  0  0  0
 15 16  1  0  0  0  0
 15 17  1  0  0  0  0
 15 41  1  1  0  0  0
 16 42  1  0  0  0  0
 17 18  1  0  0  0  0
 17 19  1  0  0  0  0
 17 43  1  1  0  0  0
 18 44  1  0  0  0  0
 19 20  1  0  0  0  0
 19 45  1  6  0  0  0
 20 21  1  0  0  0  0
 20 29  1  0  0  0  0
 21 22  2  0  0  0  0
 21 46  1  0  0  0  0
 22 23  1  0  0  0  0
 23 24  2  0  0  0  0
 23 29  1  0  0  0  0
 24 25  1  0  0  0  0
 24 26  1  0  0  0  0
 25 47  1  0  0  0  0
 25 48  1  0  0  0  0
 26 27  2  0  0  0  0
 27 28  1  0  0  0  0
 27 49  1  0  0  0  0
 28 29  2  0  0  0  0
M  CHG  1   1   1
M  END
