4ep2_ligand
 OpenBabel08222323353D

111112  0  0  1  0  0  0  0  0999 V2000
   24.8110   22.7870    7.9980 N   0  3  0  0  0  0  0  0  0  0  0  0
   25.2630   23.9370    7.1790 C   0  0  2  0  0  0  0  0  0  0  0  0
   24.3040   25.1130    7.4050 C   0  0  0  0  0  0  0  0  0  0  0  0
   24.4280   26.1860    6.7960 O   0  0  0  0  0  0  0  0  0  0  0  0
   25.3130   23.5420    5.7140 C   0  0  0  0  0  0  0  0  0  0  0  0
   23.3570   24.9140    8.3130 N   0  0  0  0  0  0  0  0  0  0  0  0
   22.4730   25.9890    8.6630 C   0  0  2  0  0  0  0  0  0  0  0  0
   22.5020   26.3250   10.1150 C   0  0  0  0  0  0  0  0  0  0  0  0
   22.4830   25.4630   11.0040 O   0  0  0  0  0  0  0  0  0  0  0  0
   21.0590   25.7250    8.2050 C   0  0  0  0  0  0  0  0  0  0  0  0
   20.7870   26.3240    6.8520 C   0  0  0  0  0  0  0  0  0  0  0  0
   20.9490   25.3120    5.7480 C   0  0  0  0  0  0  0  0  0  0  0  0
   21.3960   24.1820    6.0520 O   0  5  0  0  0  0  0  0  0  0  0  0
   20.6460   25.6510    4.5800 O   0  0  0  0  0  0  0  0  0  0  0  0
   22.5360   27.6210   10.3300 N   0  0  0  0  0  0  0  0  0  0  0  0
   22.9370   28.1740   11.5820 C   0  0  2  0  0  0  0  0  0  0  0  0
   21.9040   29.1970   11.9500 C   0  0  0  0  0  0  0  0  0  0  0  0
   21.9660   30.3640   11.5550 O   0  0  0  0  0  0  0  0  0  0  0  0
   24.3140   28.8260   11.4510 C   0  0  2  0  0  0  0  0  0  0  0  0
   25.2590   27.8390   11.0050 O   0  0  0  0  0  0  0  0  0  0  0  0
   24.7630   29.4300   12.7800 C   0  0  0  0  0  0  0  0  0  0  0  0
   20.8970   28.7480   12.6570 N   0  0  0  0  0  0  0  0  0  0  0  0
   19.9590   29.6890   13.1360 C   0  0  2  0  0  0  0  0  0  0  0  0
   20.4800   30.1660   14.5090 C   0  0  0  0  0  0  0  0  0  0  0  0
   21.5740   29.7950   14.9460 O   0  0  0  0  0  0  0  0  0  0  0  0
   18.5440   29.0920   13.0390 C   0  0  0  0  0  0  0  0  0  0  0  0
   18.3480   28.2600   11.7740 C   0  0  0  0  0  0  0  0  0  0  0  0
   18.2950   28.8620   10.5160 C   0  0  0  0  0  0  0  0  0  0  0  0
   18.3680   26.8740   11.8310 C   0  0  0  0  0  0  0  0  0  0  0  0
   18.1840   28.0950    9.3570 C   0  0  0  0  0  0  0  0  0  0  0  0
   18.2570   26.1060   10.6820 C   0  0  0  0  0  0  0  0  0  0  0  0
   18.1630   26.7140    9.4440 C   0  0  0  0  0  0  0  0  0  0  0  0
   19.7370   31.0460   15.1280 N   0  0  0  0  0  0  0  0  0  0  0  0
   20.2500   32.1680   15.9110 C   0  0  2  0  0  0  0  0  0  0  0  0
   19.4540   33.2950   15.3390 C   0  0  0  0  0  0  0  0  0  0  0  0
   19.5180   33.6110   14.1330 O   0  0  0  0  0  0  0  0  0  0  0  0
   21.7680   32.4800   15.8250 C   0  0  0  0  0  0  0  0  0  0  0  0
   22.1090   33.9010   16.3460 C   0  0  0  0  0  0  0  0  0  0  0  0
   22.0480   34.2090   17.7090 C   0  0  0  0  0  0  0  0  0  0  0  0
   22.4210   34.9390   15.4660 C   0  0  0  0  0  0  0  0  0  0  0  0
   22.2970   35.4980   18.1710 C   0  0  0  0  0  0  0  0  0  0  0  0
   22.6810   36.2300   15.9270 C   0  0  0  0  0  0  0  0  0  0  0  0
   22.6100   36.5060   17.2740 C   0  0  0  0  0  0  0  0  0  0  0  0
   22.8900   37.7840   17.7320 O   0  0  0  0  0  0  0  0  0  0  0  0
   18.5490   33.7580   16.1670 N   0  0  0  0  0  0  0  0  0  0  0  0
   17.9130   34.9800   15.9000 C   0  0  2  0  0  0  0  0  0  0  0  0
   18.0350   35.9030   17.0990 C   0  0  0  0  0  0  0  0  0  0  0  0
   17.8780   35.5270   18.2740 O   0  0  0  0  0  0  0  0  0  0  0  0
   16.4860   34.7830   15.3420 C   0  0  0  0  0  0  0  0  0  0  0  0
   16.0850   33.3110   15.3890 C   0  0  0  0  0  0  0  0  0  0  0  0
   15.4880   35.6880   16.0450 C   0  0  0  0  0  0  0  0  0  0  0  0
   18.5930   37.0420   16.7430 N   0  0  0  0  0  0  0  0  0  0  0  0
   18.5970   38.2510   17.5120 C   0  0  2  0  0  0  0  0  0  0  0  0
   17.1700   38.6350   17.8950 C   0  0  0  0  0  0  0  0  0  0  0  0
   16.4072   39.1618   17.0417 O   0  5  0  0  0  0  0  0  0  0  0  0
   19.1740   39.3130   16.5890 C   0  0  0  0  0  0  0  0  0  0  0  0
   20.2110   40.1600   17.2500 C   0  0  0  0  0  0  0  0  0  0  0  0
   21.0060   39.6140   18.0420 O   0  5  0  0  0  0  0  0  0  0  0  0
   20.2650   41.3670   16.9270 O   0  0  0  0  0  0  0  0  0  0  0  0
   16.7545   38.4248   19.0658 O   0  0  0  0  0  0  0  0  0  0  0  0
   25.4350   22.0080    7.8567 H   0  0  0  0  0  0  0  0  0  0  0  0
   23.8778   22.5242    7.7222 H   0  0  0  0  0  0  0  0  0  0  0  0
   24.8130   23.0467    8.9720 H   0  0  0  0  0  0  0  0  0  0  0  0
   26.2728   24.2337    7.4988 H   0  0  0  0  0  0  0  0  0  0  0  0
   25.6491   24.4005    5.1141 H   0  0  0  0  0  0  0  0  0  0  0  0
   24.3104   23.2334    5.3830 H   0  0  0  0  0  0  0  0  0  0  0  0
   26.0158   22.7059    5.5834 H   0  0  0  0  0  0  0  0  0  0  0  0
   23.2599   24.0202    8.7508 H   0  0  0  0  0  0  0  0  0  0  0  0
   22.8285   26.8784    8.1221 H   0  0  0  0  0  0  0  0  0  0  0  0
   20.3613   26.1623    8.9344 H   0  0  0  0  0  0  0  0  0  0  0  0
   20.8996   24.6380    8.1513 H   0  0  0  0  0  0  0  0  0  0  0  0
   21.4906   27.1522    6.6815 H   0  0  0  0  0  0  0  0  0  0  0  0
   19.7566   26.7086    6.8337 H   0  0  0  0  0  0  0  0  0  0  0  0
   22.2718   28.2404    9.5907 H   0  0  0  0  0  0  0  0  0  0  0  0
   22.9777   27.3862   12.3486 H   0  0  0  0  0  0  0  0  0  0  0  0
   24.2566   29.6300   10.7025 H   0  0  0  0  0  0  0  0  0  0  0  0
   26.1169   28.2385   10.9217 H   0  0  0  0  0  0  0  0  0  0  0  0
   25.7541   29.8911   12.6570 H   0  0  0  0  0  0  0  0  0  0  0  0
   24.8188   28.6388   13.5421 H   0  0  0  0  0  0  0  0  0  0  0  0
   24.0396   30.1952   13.0981 H   0  0  0  0  0  0  0  0  0  0  0  0
   20.7958   27.7722   12.8510 H   0  0  0  0  0  0  0  0  0  0  0  0
   19.9680   30.5659   12.4719 H   0  0  0  0  0  0  0  0  0  0  0  0
   17.8132   29.9141   13.0376 H   0  0  0  0  0  0  0  0  0  0  0  0
   18.3711   28.4492   13.9147 H   0  0  0  0  0  0  0  0  0  0  0  0
   18.3408   29.9423   10.4388 H   0  0  0  0  0  0  0  0  0  0  0  0
   18.4723   26.3824   12.7915 H   0  0  0  0  0  0  0  0  0  0  0  0
   18.1143   28.5794    8.3898 H   0  0  0  0  0  0  0  0  0  0  0  0
   18.2439   25.0245   10.7547 H   0  0  0  0  0  0  0  0  0  0  0  0
   18.0734   26.1125    8.5466 H   0  0  0  0  0  0  0  0  0  0  0  0
   18.7445   30.9436   15.0606 H   0  0  0  0  0  0  0  0  0  0  0  0
   20.0042   32.0131   16.9719 H   0  0  0  0  0  0  0  0  0  0  0  0
   22.0858   32.4030   14.7747 H   0  0  0  0  0  0  0  0  0  0  0  0
   22.3155   31.7414   16.4289 H   0  0  0  0  0  0  0  0  0  0  0  0
   21.8019   33.4282   18.4196 H   0  0  0  0  0  0  0  0  0  0  0  0
   22.4621   34.7376   14.4017 H   0  0  0  0  0  0  0  0  0  0  0  0
   22.2460   35.7130   19.2322 H   0  0  0  0  0  0  0  0  0  0  0  0
   22.9387   37.0150   15.2252 H   0  0  0  0  0  0  0  0  0  0  0  0
   22.2846   38.4004   17.3371 H   0  0  0  0  0  0  0  0  0  0  0  0
   18.3119   33.2402   16.9890 H   0  0  0  0  0  0  0  0  0  0  0  0
   18.4814   35.4610   15.0904 H   0  0  0  0  0  0  0  0  0  0  0  0
   16.5017   35.0813   14.2834 H   0  0  0  0  0  0  0  0  0  0  0  0
   15.0674   33.1952   14.9876 H   0  0  0  0  0  0  0  0  0  0  0  0
   16.1109   32.9570   16.4301 H   0  0  0  0  0  0  0  0  0  0  0  0
   16.7876   32.7200   14.7831 H   0  0  0  0  0  0  0  0  0  0  0  0
   15.8291   36.7316   15.9783 H   0  0  0  0  0  0  0  0  0  0  0  0
   15.4088   35.3951   17.1023 H   0  0  0  0  0  0  0  0  0  0  0  0
   14.5037   35.5925   15.5633 H   0  0  0  0  0  0  0  0  0  0  0  0
   19.0553   37.0649   15.8565 H   0  0  0  0  0  0  0  0  0  0  0  0
   19.2128   38.1377   18.4164 H   0  0  0  0  0  0  0  0  0  0  0  0
   18.3551   39.9637   16.2483 H   0  0  0  0  0  0  0  0  0  0  0  0
   19.6303   38.8133   15.7218 H   0  0  0  0  0  0  0  0  0  0  0  0
  1  2  1  0  0  0  0
  1 61  1  0  0  0  0
  1 62  1  0  0  0  0
  1 63  1  0  0  0  0
  2  3  1  0  0  0  0
  2  5  1  0  0  0  0
  2 64  1  1  0  0  0
  3  4  2  0  0  0  0
  3  6  1  0  0  0  0
  5 65  1  0  0  0  0
  5 66  1  0  0  0  0
  5 67  1  0  0  0  0
  6  7  1  0  0  0  0
  6 68  1  0  0  0  0
  7  8  1  0  0  0  0
  7 10  1  0  0  0  0
  7 69  1  6  0  0  0
  8  9  2  0  0  0  0
  8 15  1  0  0  0  0
 10 11  1  0  0  0  0
 10 70  1  0  0  0  0
 10 71  1  0  0  0  0
 11 12  1  0  0  0  0
 11 72  1  0  0  0  0
 11 73  1  0  0  0  0
 12 13  1  0  0  0  0
 12 14  2  0  0  0  0
 15 16  1  0  0  0  0
 15 74  1  0  0  0  0
 16 17  1  0  0  0  0
 16 19  1  0  0  0  0
 16 75  1  1  0  0  0
 17 18  2  0  0  0  0
 17 22  1  0  0  0  0
 19 20  1  0  0  0  0
 19 21  1  0  0  0  0
 19 76  1  6  0  0  0
 20 77  1  0  0  0  0
 21 78  1  0  0  0  0
 21 79  1  0  0  0  0
 21 80  1  0  0  0  0
 22 23  1  0  0  0  0
 22 81  1  0  0  0  0
 23 24  1  0  0  0  0
 23 26  1  0  0  0  0
 23 82  1  6  0  0  0
 24 25  2  0  0  0  0
 24 33  1  0  0  0  0
 26 27  1  0  0  0  0
 26 83  1  0  0  0  0
 26 84  1  0  0  0  0
 27 28  2  0  0  0  0
 27 29  1  0  0  0  0
 28 30  1  0  0  0  0
 28 85  1  0  0  0  0
 29 31  2  0  0  0  0
 29 86  1  0  0  0  0
 30 32  2  0  0  0  0
 30 87  1  0  0  0  0
 31 32  1  0  0  0  0
 31 88  1  0  0  0  0
 32 89  1  0  0  0  0
 33 34  1  0  0  0  0
 33 90  1  0  0  0  0
 34 35  1  0  0  0  0
 34 37  1  0  0  0  0
 34 91  1  1  0  0  0
 35 36  2  0  0  0  0
 35 45  1  0  0  0  0
 37 38  1  0  0  0  0
 37 92  1  0  0  0  0
 37 93  1  0  0  0  0
 38 39  2  0  0  0  0
 38 40  1  0  0  0  0
 39 41  1  0  0  0  0
 39 94  1  0  0  0  0
 40 42  2  0  0  0  0
 40 95  1  0  0  0  0
 41 43  2  0  0  0  0
 41 96  1  0  0  0  0
 42 43  1  0  0  0  0
 42 97  1  0  0  0  0
 43 44  1  0  0  0  0
 44 98  1  0  0  0  0
 45 46  1  0  0  0  0
 45 99  1  0  0  0  0
 46 47  1  0  0  0  0
 46 49  1  0  0  0  0
 46100  1  6  0  0  0
 47 48  2  0  0  0  0
 47 52  1  0  0  0  0
 49 50  1  0  0  0  0
 49 51  1  0  0  0  0
 49101  1  0  0  0  0
 50102  1  0  0  0  0
 50103  1  0  0  0  0
 50104  1  0  0  0  0
 51105  1  0  0  0  0
 51106  1  0  0  0  0
 51107  1  0  0  0  0
 52 53  1  0  0  0  0
 52108  1  0  0  0  0
 53 54  1  0  0  0  0
 53 56  1  0  0  0  0
 53109  1  1  0  0  0
 54 55  1  0  0  0  0
 54 60  2  0  0  0  0
 56 57  1  0  0  0  0
 56110  1  0  0  0  0
 56111  1  0  0  0  0
 57 58  1  0  0  0  0
 57 59  2  0  0  0  0
M  CHG  4   1   1  13  -1  55  -1  58  -1
M  END
