4eqc_ligand
 OpenBabel08222323353D

 68 73  0  0  0  0  0  0  0  0999 V2000
   14.0130   33.3000  -16.9950 C   0  0  0  0  0  0  0  0  0  0  0  0
   14.0340   34.7360  -16.4710 C   0  0  0  0  0  0  0  0  0  0  0  0
   13.7180   34.6730  -15.0440 N   0  0  0  0  0  0  0  0  0  0  0  0
   12.3350   34.7770  -14.6070 C   0  0  0  0  0  0  0  0  0  0  0  0
   10.6990   37.3820  -13.1100 Cl  0  0  0  0  0  0  0  0  0  0  0  0
   11.4070   34.8940  -15.3940 O   0  0  0  0  0  0  0  0  0  0  0  0
    9.9940   35.9140  -12.6770 C   0  0  0  0  0  0  0  0  0  0  0  0
    8.6480   35.8240  -12.2470 C   0  0  0  0  0  0  0  0  0  0  0  0
    8.0660   34.5770  -11.8680 C   0  0  0  0  0  0  0  0  0  0  0  0
    6.6430   34.5730  -11.3580 C   0  0  0  0  0  0  0  0  0  0  0  0
    5.6170   35.2710  -11.9980 C   0  0  0  0  0  0  0  0  0  0  0  0
    4.3950   35.1800  -11.4120 N   0  0  0  0  0  0  0  0  0  0  0  0
    5.9710   33.8080   -9.9500 S   0  0  0  0  0  0  0  0  0  0  0  0
    4.4240   34.4480  -10.3180 C   0  0  0  0  0  0  0  0  0  0  0  0
    8.8430   33.3860  -11.9420 C   0  0  0  0  0  0  0  0  0  0  0  0
   10.1780   33.4680  -12.3420 C   0  0  0  0  0  0  0  0  0  0  0  0
   10.7770   34.7300  -12.7050 C   0  0  0  0  0  0  0  0  0  0  0  0
   12.0900   34.7030  -13.1060 C   0  0  0  0  0  0  0  0  0  0  0  0
   13.0950   34.6100  -12.2070 C   0  0  0  0  0  0  0  0  0  0  0  0
   14.4990   34.5400  -12.7000 C   0  0  0  0  0  0  0  0  0  0  0  0
   15.6370   34.4270  -11.9080 C   0  0  0  0  0  0  0  0  0  0  0  0
   16.9210   34.3580  -12.3900 N   0  0  0  0  0  0  0  0  0  0  0  0
   14.7580   34.5960  -14.0860 C   0  0  0  0  0  0  0  0  0  0  0  0
   16.0190   34.5730  -14.5910 N   0  0  0  0  0  0  0  0  0  0  0  0
   17.0380   34.4380  -13.7530 C   0  0  0  0  0  0  0  0  0  0  0  0
   18.2080   34.3540  -14.2640 N   0  0  0  0  0  0  0  0  0  0  0  0
   18.6090   34.2510  -15.5090 C   0  0  0  0  0  0  0  0  0  0  0  0
   17.9340   33.5500  -16.5210 C   0  0  0  0  0  0  0  0  0  0  0  0
   18.4610   33.5470  -17.8450 C   0  0  0  0  0  0  0  0  0  0  0  0
   19.6430   34.2380  -18.1900 C   0  0  0  0  0  0  0  0  0  0  0  0
   20.3170   34.9120  -17.1620 C   0  0  0  0  0  0  0  0  0  0  0  0
   19.8110   34.9070  -15.8550 C   0  0  0  0  0  0  0  0  0  0  0  0
   20.0900   34.3150  -19.4120 N   0  0  0  0  0  0  0  0  0  0  0  0
   21.3300   33.6500  -19.8710 C   0  0  0  0  0  0  0  0  0  0  0  0
   19.3640   34.8980  -20.5850 C   0  0  0  0  0  0  0  0  0  0  0  0
   20.1840   35.4120  -21.8140 C   0  0  0  0  0  0  0  0  0  0  0  0
   21.3620   34.5920  -22.1970 N   0  3  0  0  0  0  0  0  0  0  0  0
   22.1730   35.3430  -23.1310 C   0  0  0  0  0  0  0  0  0  0  0  0
   22.1490   34.3930  -20.9640 C   0  0  0  0  0  0  0  0  0  0  0  0
   14.2464   33.2985  -18.0699 H   0  0  0  0  0  0  0  0  0  0  0  0
   13.0147   32.8662  -16.8360 H   0  0  0  0  0  0  0  0  0  0  0  0
   14.7627   32.7020  -16.4562 H   0  0  0  0  0  0  0  0  0  0  0  0
   13.2825   35.3420  -16.9983 H   0  0  0  0  0  0  0  0  0  0  0  0
   15.0305   35.1778  -16.6184 H   0  0  0  0  0  0  0  0  0  0  0  0
    8.0450   36.7238  -12.2046 H   0  0  0  0  0  0  0  0  0  0  0  0
    5.7851   35.8491  -12.9054 H   0  0  0  0  0  0  0  0  0  0  0  0
    3.5444   34.2656   -9.7024 H   0  0  0  0  0  0  0  0  0  0  0  0
    8.4033   32.4275  -11.6908 H   0  0  0  0  0  0  0  0  0  0  0  0
   10.7770   32.5654  -12.3808 H   0  0  0  0  0  0  0  0  0  0  0  0
   12.8818   34.5866  -11.1393 H   0  0  0  0  0  0  0  0  0  0  0  0
   15.5004   34.3908  -10.8332 H   0  0  0  0  0  0  0  0  0  0  0  0
   18.9725   34.3701  -13.5739 H   0  0  0  0  0  0  0  0  0  0  0  0
   17.0184   33.0148  -16.2968 H   0  0  0  0  0  0  0  0  0  0  0  0
   17.9354   32.9942  -18.6152 H   0  0  0  0  0  0  0  0  0  0  0  0
   21.2374   35.4416  -17.3799 H   0  0  0  0  0  0  0  0  0  0  0  0
   20.3632   35.4264  -15.0802 H   0  0  0  0  0  0  0  0  0  0  0  0
   21.0522   32.6646  -20.2731 H   0  0  0  0  0  0  0  0  0  0  0  0
   21.9828   33.5181  -18.9955 H   0  0  0  0  0  0  0  0  0  0  0  0
   18.7800   35.7511  -20.2094 H   0  0  0  0  0  0  0  0  0  0  0  0
   18.6802   34.1212  -20.9577 H   0  0  0  0  0  0  0  0  0  0  0  0
   20.5408   36.4261  -21.5808 H   0  0  0  0  0  0  0  0  0  0  0  0
   19.5056   35.4518  -22.6790 H   0  0  0  0  0  0  0  0  0  0  0  0
   21.0779   33.7114  -22.5968 H   0  0  0  0  0  0  0  0  0  0  0  0
   23.0486   34.7435  -23.4208 H   0  0  0  0  0  0  0  0  0  0  0  0
   22.5088   36.2769  -22.6566 H   0  0  0  0  0  0  0  0  0  0  0  0
   21.5782   35.5794  -24.0256 H   0  0  0  0  0  0  0  0  0  0  0  0
   23.0433   33.7993  -21.2042 H   0  0  0  0  0  0  0  0  0  0  0  0
   22.4546   35.3751  -20.5741 H   0  0  0  0  0  0  0  0  0  0  0  0
  1 40  1  0  0  0  0
  1 41  1  0  0  0  0
  1 42  1  0  0  0  0
  2  1  1  0  0  0  0
  2 43  1  0  0  0  0
  2 44  1  0  0  0  0
  3  2  1  0  0  0  0
  3 23  1  0  0  0  0
  4  3  1  0  0  0  0
  4  6  2  0  0  0  0
  7  5  1  0  0  0  0
  7  8  2  0  0  0  0
  8  9  1  0  0  0  0
  8 45  1  0  0  0  0
  9 10  1  0  0  0  0
 10 11  2  0  0  0  0
 10 13  1  0  0  0  0
 11 12  1  0  0  0  0
 11 46  1  0  0  0  0
 13 14  1  0  0  0  0
 14 12  2  0  0  0  0
 14 47  1  0  0  0  0
 15  9  2  0  0  0  0
 15 48  1  0  0  0  0
 16 15  1  0  0  0  0
 16 49  1  0  0  0  0
 17  7  1  0  0  0  0
 17 16  2  0  0  0  0
 17 18  1  0  0  0  0
 18  4  1  0  0  0  0
 18 19  2  0  0  0  0
 19 20  1  0  0  0  0
 19 50  1  0  0  0  0
 20 21  2  0  0  0  0
 20 23  1  0  0  0  0
 21 22  1  0  0  0  0
 21 51  1  0  0  0  0
 22 25  2  0  0  0  0
 23 24  2  0  0  0  0
 24 25  1  0  0  0  0
 25 26  1  0  0  0  0
 26 27  1  0  0  0  0
 26 52  1  0  0  0  0
 27 28  2  0  0  0  0
 27 32  1  0  0  0  0
 28 29  1  0  0  0  0
 28 53  1  0  0  0  0
 29 30  2  0  0  0  0
 29 54  1  0  0  0  0
 30 31  1  0  0  0  0
 30 33  1  0  0  0  0
 31 32  2  0  0  0  0
 31 55  1  0  0  0  0
 32 56  1  0  0  0  0
 33 34  1  0  0  0  0
 33 35  1  0  0  0  0
 34 39  1  0  0  0  0
 34 57  1  0  0  0  0
 34 58  1  0  0  0  0
 35 36  1  0  0  0  0
 35 59  1  0  0  0  0
 35 60  1  0  0  0  0
 36 37  1  0  0  0  0
 36 61  1  0  0  0  0
 36 62  1  0  0  0  0
 37 38  1  0  0  0  0
 37 39  1  0  0  0  0
 37 63  1  0  0  0  0
 38 64  1  0  0  0  0
 38 65  1  0  0  0  0
 38 66  1  0  0  0  0
 39 67  1  0  0  0  0
 39 68  1  0  0  0  0
M  CHG  1  37   1
M  END
