4er4_ligand
 OpenBabel08222323353D

160165  0  0  1  0  0  0  0  0999 V2000
   31.0930   -4.0620  -12.7540 N   0  3  0  0  0  0  0  0  0  0  0  0
   31.1420   -3.6930  -11.3120 C   0  0  2  0  0  0  0  0  0  0  0  0
   32.4370   -4.2110  -10.6390 C   0  0  0  0  0  0  0  0  0  0  0  0
   33.0610   -5.1820  -11.1680 O   0  0  0  0  0  0  0  0  0  0  0  0
   29.9780   -4.4660  -10.7110 C   0  0  0  0  0  0  0  0  0  0  0  0
   29.3640   -5.3310  -11.8150 C   0  0  0  0  0  0  0  0  0  0  0  0
   30.1540   -5.1510  -13.0740 C   0  0  0  0  0  0  0  0  0  0  0  0
   32.8030   -3.5760   -9.4940 N   0  0  0  0  0  0  0  0  0  0  0  0
   33.9610   -4.0220   -8.6280 C   0  0  2  0  0  0  0  0  0  0  0  0
   33.4680   -4.3670   -7.2060 C   0  0  0  0  0  0  0  0  0  0  0  0
   33.6640   -3.5930   -6.2570 O   0  0  0  0  0  0  0  0  0  0  0  0
   35.0140   -2.8970   -8.4780 C   0  0  0  0  0  0  0  0  0  0  0  0
   36.4340   -3.4030   -8.0990 C   0  0  0  0  0  0  0  0  0  0  0  0
   36.6720   -4.2070   -6.9760 N   0  0  0  0  0  0  0  0  0  0  0  0
   37.6560   -3.2030   -8.6710 C   0  0  0  0  0  0  0  0  0  0  0  0
   37.9720   -4.4600   -6.9110 C   0  0  0  0  0  0  0  0  0  0  0  0
   38.5700   -3.8690   -7.9110 N   0  0  0  0  0  0  0  0  0  0  0  0
   32.8080   -5.5250   -6.9990 N   0  0  0  0  0  0  0  0  0  0  0  0
   32.3400   -5.9150   -5.6770 C   0  0  2  0  0  0  0  0  0  0  0  0
   33.5010   -6.0440   -4.7270 C   0  0  0  0  0  0  0  0  0  0  0  0
   34.6820   -5.9100   -5.1750 O   0  0  0  0  0  0  0  0  0  0  0  0
   31.6400   -7.2350   -5.9110 C   0  0  0  0  0  0  0  0  0  0  0  0
   31.7440   -7.5620   -7.3990 C   0  0  0  0  0  0  0  0  0  0  0  0
   32.5030   -6.4690   -8.0800 C   0  0  0  0  0  0  0  0  0  0  0  0
   33.1500   -6.3010   -3.4730 N   0  0  0  0  0  0  0  0  0  0  0  0
   34.1260   -6.4160   -2.3740 C   0  0  2  0  0  0  0  0  0  0  0  0
   33.9080   -7.6980   -1.6090 C   0  0  0  0  0  0  0  0  0  0  0  0
   32.8780   -8.3370   -1.4690 O   0  0  0  0  0  0  0  0  0  0  0  0
   34.0560   -5.1720   -1.4840 C   0  0  0  0  0  0  0  0  0  0  0  0
   34.9490   -4.0290   -1.9860 C   0  0  0  0  0  0  0  0  0  0  0  0
   36.3140   -4.0180   -1.6750 C   0  0  0  0  0  0  0  0  0  0  0  0
   34.4010   -2.9980   -2.7610 C   0  0  0  0  0  0  0  0  0  0  0  0
   37.1310   -2.9770   -2.1360 C   0  0  0  0  0  0  0  0  0  0  0  0
   35.2180   -1.9570   -3.2220 C   0  0  0  0  0  0  0  0  0  0  0  0
   36.5820   -1.9470   -2.9090 C   0  0  0  0  0  0  0  0  0  0  0  0
   34.9890   -8.3050   -1.1220 N   0  0  0  0  0  0  0  0  0  0  0  0
   34.7230   -9.5530   -0.3760 C   0  0  2  0  0  0  0  0  0  0  0  0
   35.3500   -9.4380    0.9920 C   0  0  0  0  0  0  0  0  0  0  0  0
   35.9020  -10.4290    1.4910 O   0  0  0  0  0  0  0  0  0  0  0  0
   35.2870  -10.7320   -1.1750 C   0  0  0  0  0  0  0  0  0  0  0  0
   34.9560  -10.6610   -2.6680 C   0  0  0  0  0  0  0  0  0  0  0  0
   35.8270  -10.2070   -3.6550 N   0  0  0  0  0  0  0  0  0  0  0  0
   33.7630  -11.0220   -3.3140 C   0  0  0  0  0  0  0  0  0  0  0  0
   35.2010  -10.2900   -4.8950 C   0  0  0  0  0  0  0  0  0  0  0  0
   33.9100  -10.7850   -4.6650 N   0  0  0  0  0  0  0  0  0  0  0  0
   35.3250   -8.2710    1.6410 N   0  0  0  0  0  0  0  0  0  0  0  0
   36.2070   -8.0630    2.8100 C   0  0  2  0  0  0  0  0  0  0  0  0
   35.5320   -8.4570    4.0830 C   0  0  0  0  0  0  0  0  0  0  0  0
   36.5800   -6.6220    3.0560 C   0  0  0  0  0  0  0  0  0  0  0  0
   37.2750   -5.9630    1.8650 C   0  0  0  0  0  0  0  0  0  0  0  0
   37.4100   -4.4470    2.0180 C   0  0  0  0  0  0  0  0  0  0  0  0
   38.6950   -6.4860    1.6380 C   0  0  0  0  0  0  0  0  0  0  0  0
   34.9970   -9.8470    4.0550 N   0  3  0  0  0  0  0  0  0  0  0  0
   35.2210  -10.7430    5.2510 C   0  0  2  0  0  0  0  0  0  0  0  0
   36.6780  -11.2120    5.2440 C   0  0  0  0  0  0  0  0  0  0  0  0
   37.3850  -11.0940    4.2320 O   0  0  0  0  0  0  0  0  0  0  0  0
   34.3450  -12.0090    5.1340 C   0  0  0  0  0  0  0  0  0  0  0  0
   34.8720  -13.0070    4.1010 C   0  0  0  0  0  0  0  0  0  0  0  0
   34.2460  -12.7960    6.4440 C   0  0  0  0  0  0  0  0  0  0  0  0
   37.1400  -11.7430    6.3540 N   0  0  0  0  0  0  0  0  0  0  0  0
   38.5300  -12.2280    6.4350 C   0  0  2  0  0  0  0  0  0  0  0  0
   38.6060  -13.6990    6.0560 C   0  0  0  0  0  0  0  0  0  0  0  0
   37.5970  -14.4190    6.0920 O   0  0  0  0  0  0  0  0  0  0  0  0
   39.1060  -12.0400    7.8300 C   0  0  2  0  0  0  0  0  0  0  0  0
   40.5150  -12.6260    7.9620 C   0  0  0  0  0  0  0  0  0  0  0  0
   38.2510  -12.6880    8.9210 C   0  0  0  0  0  0  0  0  0  0  0  0
   40.9850  -12.7340    9.4140 C   0  0  0  0  0  0  0  0  0  0  0  0
   39.8160  -14.0840    5.7110 N   0  0  0  0  0  0  0  0  0  0  0  0
   40.1360  -15.4480    5.2940 C   0  0  2  0  0  0  0  0  0  0  0  0
   40.6870  -16.2300    6.4640 C   0  0  0  0  0  0  0  0  0  0  0  0
   39.9730  -17.0120    7.1100 O   0  0  0  0  0  0  0  0  0  0  0  0
   41.1720  -15.4140    4.1490 C   0  0  0  0  0  0  0  0  0  0  0  0
   41.2100  -16.6960    3.2860 C   0  0  0  0  0  0  0  0  0  0  0  0
   42.4130  -17.2550    2.8470 N   0  0  0  0  0  0  0  0  0  0  0  0
   40.2260  -17.4900    2.7780 C   0  0  0  0  0  0  0  0  0  0  0  0
   42.1350  -18.3250    2.1210 C   0  0  0  0  0  0  0  0  0  0  0  0
   40.8370  -18.4790    2.0690 N   0  0  0  0  0  0  0  0  0  0  0  0
   41.9400  -16.0640    6.8470 N   0  0  0  0  0  0  0  0  0  0  0  0
   32.0167   -4.3494  -13.0371 H   0  0  0  0  0  0  0  0  0  0  0  0
   30.8194   -3.2460  -13.2787 H   0  0  0  0  0  0  0  0  0  0  0  0
   31.0389   -2.6070  -11.1710 H   0  0  0  0  0  0  0  0  0  0  0  0
   29.2243   -3.7646  -10.3238 H   0  0  0  0  0  0  0  0  0  0  0  0
   30.3381   -5.1061   -9.8921 H   0  0  0  0  0  0  0  0  0  0  0  0
   28.3218   -5.0240  -11.9870 H   0  0  0  0  0  0  0  0  0  0  0  0
   29.3896   -6.3881  -11.5120 H   0  0  0  0  0  0  0  0  0  0  0  0
   30.6970   -6.0728  -13.3298 H   0  0  0  0  0  0  0  0  0  0  0  0
   29.4976   -4.8681  -13.9101 H   0  0  0  0  0  0  0  0  0  0  0  0
   32.2799   -2.7726   -9.2093 H   0  0  0  0  0  0  0  0  0  0  0  0
   34.4283   -4.9067   -9.0850 H   0  0  0  0  0  0  0  0  0  0  0  0
   34.6724   -2.2066   -7.6927 H   0  0  0  0  0  0  0  0  0  0  0  0
   35.0831   -2.3588   -9.4348 H   0  0  0  0  0  0  0  0  0  0  0  0
   35.9586   -4.5440   -6.3139 H   0  0  0  0  0  0  0  0  0  0  0  0
   37.8625   -2.6201   -9.5674 H   0  0  0  0  0  0  0  0  0  0  0  0
   38.4619   -5.0628   -6.1477 H   0  0  0  0  0  0  0  0  0  0  0  0
   31.6319   -5.1726   -5.2803 H   0  0  0  0  0  0  0  0  0  0  0  0
   30.5826   -7.1547   -5.6187 H   0  0  0  0  0  0  0  0  0  0  0  0
   32.1249   -8.0256   -5.3195 H   0  0  0  0  0  0  0  0  0  0  0  0
   30.7358   -7.6376   -7.8324 H   0  0  0  0  0  0  0  0  0  0  0  0
   32.2727   -8.5174   -7.5316 H   0  0  0  0  0  0  0  0  0  0  0  0
   33.4272   -6.8576   -8.5327 H   0  0  0  0  0  0  0  0  0  0  0  0
   31.8878   -5.9900   -8.8560 H   0  0  0  0  0  0  0  0  0  0  0  0
   32.1796   -6.4221   -3.2642 H   0  0  0  0  0  0  0  0  0  0  0  0
   35.1340   -6.4575   -2.8124 H   0  0  0  0  0  0  0  0  0  0  0  0
   34.3766   -5.4481   -0.4686 H   0  0  0  0  0  0  0  0  0  0  0  0
   33.0149   -4.8180   -1.4563 H   0  0  0  0  0  0  0  0  0  0  0  0
   36.7394   -4.8157   -1.0769 H   0  0  0  0  0  0  0  0  0  0  0  0
   33.3446   -3.0058   -3.0040 H   0  0  0  0  0  0  0  0  0  0  0  0
   38.1877   -2.9693   -1.8942 H   0  0  0  0  0  0  0  0  0  0  0  0
   34.7935   -1.1595   -3.8210 H   0  0  0  0  0  0  0  0  0  0  0  0
   37.2137   -1.1413   -3.2653 H   0  0  0  0  0  0  0  0  0  0  0  0
   35.9122   -7.9432   -1.2515 H   0  0  0  0  0  0  0  0  0  0  0  0
   33.6377   -9.6891   -0.2598 H   0  0  0  0  0  0  0  0  0  0  0  0
   34.8670  -11.6635   -0.7676 H   0  0  0  0  0  0  0  0  0  0  0  0
   36.3809  -10.7416   -1.0594 H   0  0  0  0  0  0  0  0  0  0  0  0
   36.7844   -9.8636   -3.4927 H   0  0  0  0  0  0  0  0  0  0  0  0
   32.8726  -11.4214   -2.8306 H   0  0  0  0  0  0  0  0  0  0  0  0
   35.6314  -10.0219   -5.8588 H   0  0  0  0  0  0  0  0  0  0  0  0
   34.7126   -7.5409    1.3379 H   0  0  0  0  0  0  0  0  0  0  0  0
   37.1178   -8.6614    2.6606 H   0  0  0  0  0  0  0  0  0  0  0  0
   34.6973   -7.7643    4.2656 H   0  0  0  0  0  0  0  0  0  0  0  0
   36.2599   -8.3786    4.9040 H   0  0  0  0  0  0  0  0  0  0  0  0
   37.2572   -6.5800    3.9218 H   0  0  0  0  0  0  0  0  0  0  0  0
   35.6627   -6.0578    3.2803 H   0  0  0  0  0  0  0  0  0  0  0  0
   36.6708   -6.1773    0.9711 H   0  0  0  0  0  0  0  0  0  0  0  0
   37.9157   -4.0328    1.1333 H   0  0  0  0  0  0  0  0  0  0  0  0
   38.0009   -4.2204    2.9177 H   0  0  0  0  0  0  0  0  0  0  0  0
   36.4105   -3.9976    2.1129 H   0  0  0  0  0  0  0  0  0  0  0  0
   38.6684   -7.5792    1.5193 H   0  0  0  0  0  0  0  0  0  0  0  0
   39.3240   -6.2263    2.5022 H   0  0  0  0  0  0  0  0  0  0  0  0
   39.1134   -6.0286    0.7293 H   0  0  0  0  0  0  0  0  0  0  0  0
   35.4116  -10.3070    3.2597 H   0  0  0  0  0  0  0  0  0  0  0  0
   34.0004   -9.7772    3.9210 H   0  0  0  0  0  0  0  0  0  0  0  0
   34.9905  -10.1998    6.1793 H   0  0  0  0  0  0  0  0  0  0  0  0
   33.3369  -11.6854    4.8357 H   0  0  0  0  0  0  0  0  0  0  0  0
   34.2075  -13.8829    4.0652 H   0  0  0  0  0  0  0  0  0  0  0  0
   35.8856  -13.3271    4.3842 H   0  0  0  0  0  0  0  0  0  0  0  0
   34.9017  -12.5287    3.1109 H   0  0  0  0  0  0  0  0  0  0  0  0
   33.8703  -12.1367    7.2403 H   0  0  0  0  0  0  0  0  0  0  0  0
   35.2411  -13.1745    6.7205 H   0  0  0  0  0  0  0  0  0  0  0  0
   33.5555  -13.6420    6.3122 H   0  0  0  0  0  0  0  0  0  0  0  0
   36.5423  -11.8189    7.1522 H   0  0  0  0  0  0  0  0  0  0  0  0
   39.1387  -11.6490    5.7249 H   0  0  0  0  0  0  0  0  0  0  0  0
   39.1562  -10.9582    8.0227 H   0  0  0  0  0  0  0  0  0  0  0  0
   41.2161  -11.9794    7.4140 H   0  0  0  0  0  0  0  0  0  0  0  0
   40.5193  -13.6318    7.5167 H   0  0  0  0  0  0  0  0  0  0  0  0
   37.2251  -12.2952    8.8645 H   0  0  0  0  0  0  0  0  0  0  0  0
   38.6784  -12.4564    9.9078 H   0  0  0  0  0  0  0  0  0  0  0  0
   38.2348  -13.7781    8.7751 H   0  0  0  0  0  0  0  0  0  0  0  0
   41.9989  -13.1599    9.4405 H   0  0  0  0  0  0  0  0  0  0  0  0
   40.2987  -13.3861    9.9741 H   0  0  0  0  0  0  0  0  0  0  0  0
   40.9955  -11.7337    9.8714 H   0  0  0  0  0  0  0  0  0  0  0  0
   40.5539  -13.4095    5.7353 H   0  0  0  0  0  0  0  0  0  0  0  0
   39.2192  -15.9383    4.9348 H   0  0  0  0  0  0  0  0  0  0  0  0
   42.1686  -15.2666    4.5906 H   0  0  0  0  0  0  0  0  0  0  0  0
   40.9323  -14.5643    3.4929 H   0  0  0  0  0  0  0  0  0  0  0  0
   43.3557  -16.8951    3.0536 H   0  0  0  0  0  0  0  0  0  0  0  0
   39.1535  -17.3584    2.9135 H   0  0  0  0  0  0  0  0  0  0  0  0
   42.8683  -18.9732    1.6436 H   0  0  0  0  0  0  0  0  0  0  0  0
   42.2991  -16.5842    7.6219 H   0  0  0  0  0  0  0  0  0  0  0  0
   42.5297  -15.4181    6.3621 H   0  0  0  0  0  0  0  0  0  0  0  0
  1  2  1  0  0  0  0
  1  7  1  0  0  0  0
  1 79  1  0  0  0  0
  1 80  1  0  0  0  0
  2  3  1  0  0  0  0
  2  5  1  0  0  0  0
  2 81  1  1  0  0  0
  3  4  2  0  0  0  0
  3  8  1  0  0  0  0
  5  6  1  0  0  0  0
  5 82  1  0  0  0  0
  5 83  1  0  0  0  0
  6  7  1  0  0  0  0
  6 84  1  0  0  0  0
  6 85  1  0  0  0  0
  7 86  1  0  0  0  0
  7 87  1  0  0  0  0
  8  9  1  0  0  0  0
  8 88  1  0  0  0  0
  9 10  1  0  0  0  0
  9 12  1  0  0  0  0
  9 89  1  6  0  0  0
 10 11  2  0  0  0  0
 10 18  1  0  0  0  0
 12 13  1  0  0  0  0
 12 90  1  0  0  0  0
 12 91  1  0  0  0  0
 13 14  1  0  0  0  0
 13 15  2  0  0  0  0
 14 16  1  0  0  0  0
 14 92  1  0  0  0  0
 15 17  1  0  0  0  0
 15 93  1  0  0  0  0
 16 17  2  0  0  0  0
 16 94  1  0  0  0  0
 18 19  1  0  0  0  0
 18 24  1  0  0  0  0
 19 20  1  0  0  0  0
 19 22  1  0  0  0  0
 19 95  1  1  0  0  0
 20 21  2  0  0  0  0
 20 25  1  0  0  0  0
 22 23  1  0  0  0  0
 22 96  1  0  0  0  0
 22 97  1  0  0  0  0
 23 24  1  0  0  0  0
 23 98  1  0  0  0  0
 23 99  1  0  0  0  0
 24100  1  0  0  0  0
 24101  1  0  0  0  0
 25 26  1  0  0  0  0
 25102  1  0  0  0  0
 26 27  1  0  0  0  0
 26 29  1  0  0  0  0
 26103  1  6  0  0  0
 27 28  2  0  0  0  0
 27 36  1  0  0  0  0
 29 30  1  0  0  0  0
 29104  1  0  0  0  0
 29105  1  0  0  0  0
 30 31  2  0  0  0  0
 30 32  1  0  0  0  0
 31 33  1  0  0  0  0
 31106  1  0  0  0  0
 32 34  2  0  0  0  0
 32107  1  0  0  0  0
 33 35  2  0  0  0  0
 33108  1  0  0  0  0
 34 35  1  0  0  0  0
 34109  1  0  0  0  0
 35110  1  0  0  0  0
 36 37  1  0  0  0  0
 36111  1  0  0  0  0
 37 38  1  0  0  0  0
 37 40  1  0  0  0  0
 37112  1  1  0  0  0
 38 39  2  0  0  0  0
 38 46  1  0  0  0  0
 40 41  1  0  0  0  0
 40113  1  0  0  0  0
 40114  1  0  0  0  0
 41 42  1  0  0  0  0
 41 43  2  0  0  0  0
 42 44  1  0  0  0  0
 42115  1  0  0  0  0
 43 45  1  0  0  0  0
 43116  1  0  0  0  0
 44 45  2  0  0  0  0
 44117  1  0  0  0  0
 46 47  1  0  0  0  0
 46118  1  0  0  0  0
 47 48  1  0  0  0  0
 47 49  1  0  0  0  0
 47119  1  6  0  0  0
 48 53  1  0  0  0  0
 48120  1  0  0  0  0
 48121  1  0  0  0  0
 49 50  1  0  0  0  0
 49122  1  0  0  0  0
 49123  1  0  0  0  0
 50 51  1  0  0  0  0
 50 52  1  0  0  0  0
 50124  1  0  0  0  0
 51125  1  0  0  0  0
 51126  1  0  0  0  0
 51127  1  0  0  0  0
 52128  1  0  0  0  0
 52129  1  0  0  0  0
 52130  1  0  0  0  0
 53 54  1  0  0  0  0
 53131  1  0  0  0  0
 53132  1  0  0  0  0
 54 55  1  0  0  0  0
 54 57  1  0  0  0  0
 54133  1  1  0  0  0
 55 56  2  0  0  0  0
 55 60  1  0  0  0  0
 57 58  1  0  0  0  0
 57 59  1  0  0  0  0
 57134  1  0  0  0  0
 58135  1  0  0  0  0
 58136  1  0  0  0  0
 58137  1  0  0  0  0
 59138  1  0  0  0  0
 59139  1  0  0  0  0
 59140  1  0  0  0  0
 60 61  1  0  0  0  0
 60141  1  0  0  0  0
 61 62  1  0  0  0  0
 61 64  1  0  0  0  0
 61142  1  6  0  0  0
 62 63  2  0  0  0  0
 62 68  1  0  0  0  0
 64 65  1  0  0  0  0
 64 66  1  0  0  0  0
 64143  1  1  0  0  0
 65 67  1  0  0  0  0
 65144  1  0  0  0  0
 65145  1  0  0  0  0
 66146  1  0  0  0  0
 66147  1  0  0  0  0
 66148  1  0  0  0  0
 67149  1  0  0  0  0
 67150  1  0  0  0  0
 67151  1  0  0  0  0
 68 69  1  0  0  0  0
 68152  1  0  0  0  0
 69 70  1  0  0  0  0
 69 72  1  0  0  0  0
 69153  1  6  0  0  0
 70 71  2  0  0  0  0
 70 78  1  0  0  0  0
 72 73  1  0  0  0  0
 72154  1  0  0  0  0
 72155  1  0  0  0  0
 73 74  1  0  0  0  0
 73 75  2  0  0  0  0
 74 76  1  0  0  0  0
 74156  1  0  0  0  0
 75 77  1  0  0  0  0
 75157  1  0  0  0  0
 76 77  2  0  0  0  0
 76158  1  0  0  0  0
 78159  1  0  0  0  0
 78160  1  0  0  0  0
M  CHG  2   1   1  53   1
M  END
