4erq_ligand
 OpenBabel08222323353D

197198  0  0  1  0  0  0  0  0999 V2000
  -28.8300   19.2070  -32.6600 N   0  3  0  0  0  0  0  0  0  0  0  0
  -28.0010   18.0330  -32.9410 C   0  0  2  0  0  0  0  0  0  0  0  0
  -28.1340   16.9820  -31.8400 C   0  0  0  0  0  0  0  0  0  0  0  0
  -27.9820   17.2970  -30.6570 O   0  0  0  0  0  0  0  0  0  0  0  0
  -26.5150   18.4090  -33.0810 C   0  0  2  0  0  0  0  0  0  0  0  0
  -26.2860   19.2250  -34.3540 C   0  0  0  0  0  0  0  0  0  0  0  0
  -25.6380   17.1550  -33.1010 C   0  0  0  0  0  0  0  0  0  0  0  0
  -24.8380   19.6040  -34.5780 C   0  0  0  0  0  0  0  0  0  0  0  0
  -28.4230   15.7420  -32.2310 N   0  0  0  0  0  0  0  0  0  0  0  0
  -28.4840   14.6350  -31.2830 C   0  0  2  0  0  0  0  0  0  0  0  0
  -27.1140   13.9730  -31.1650 C   0  0  0  0  0  0  0  0  0  0  0  0
  -26.6040   13.4280  -32.1470 O   0  0  0  0  0  0  0  0  0  0  0  0
  -29.5460   13.6110  -31.7180 C   0  0  0  0  0  0  0  0  0  0  0  0
  -30.9630   14.1650  -31.6260 C   0  0  0  0  0  0  0  0  0  0  0  0
  -31.3570   14.7180  -30.5980 O   0  0  0  0  0  0  0  0  0  0  0  0
  -31.7290   14.0380  -32.7090 N   0  0  0  0  0  0  0  0  0  0  0  0
  -26.5100   14.0320  -29.9620 N   0  0  0  0  0  0  0  0  0  0  0  0
  -25.1450   13.5400  -29.7210 C   0  0  2  0  0  0  0  0  0  0  0  0
  -24.9560   12.0760  -30.0990 C   0  0  0  0  0  0  0  0  0  0  0  0
  -23.8720   11.7110  -30.5730 O   0  0  0  0  0  0  0  0  0  0  0  0
  -24.9760   13.6860  -28.2010 C   0  0  0  0  0  0  0  0  0  0  0  0
  -25.9770   14.7190  -27.7930 C   0  0  0  0  0  0  0  0  0  0  0  0
  -27.1320   14.5640  -28.7350 C   0  0  0  0  0  0  0  0  0  0  0  0
  -25.9750   11.2450  -29.8820 N   0  0  0  0  0  0  0  0  0  0  0  0
  -25.8650    9.8340  -30.2410 C   0  0  2  0  0  0  0  0  0  0  0  0
  -25.9190    9.6120  -31.7430 C   0  0  0  0  0  0  0  0  0  0  0  0
  -25.5030    8.5580  -32.2280 O   0  0  0  0  0  0  0  0  0  0  0  0
  -26.9670    8.9770  -29.5950 C   0  0  2  0  0  0  0  0  0  0  0  0
  -28.2460    9.4070  -30.0830 O   0  0  0  0  0  0  0  0  0  0  0  0
  -26.9110    9.0900  -28.0760 C   0  0  0  0  0  0  0  0  0  0  0  0
  -26.4470   10.5870  -32.4810 N   0  0  0  0  0  0  0  0  0  0  0  0
  -26.5000   10.4660  -33.9260 C   0  0  0  0  0  0  0  0  0  0  0  0
  -27.8950   10.4400  -34.5380 C   0  0  0  0  0  0  0  0  0  0  0  0
  -28.0540   10.7240  -35.7260 O   0  0  0  0  0  0  0  0  0  0  0  0
  -28.9050   10.0710  -33.7520 N   0  0  0  0  0  0  0  0  0  0  0  0
  -30.2920   10.1220  -34.2460 C   0  0  2  0  0  0  0  0  0  0  0  0
  -31.2760   10.3240  -33.0980 C   0  0  0  0  0  0  0  0  0  0  0  0
  -30.9640   10.0420  -31.9370 O   0  0  0  0  0  0  0  0  0  0  0  0
  -30.6470    8.8690  -35.0640 C   0  0  0  0  0  0  0  0  0  0  0  0
  -31.0860    7.3950  -34.0660 S   0  0  0  0  0  0  0  0  0  0  0  0
  -32.4620   10.8320  -33.4280 N   0  0  0  0  0  0  0  0  0  0  0  0
  -33.4690   11.1400  -32.4240 C   0  0  2  0  0  0  0  0  0  0  0  0
  -33.8970    9.9190  -31.5880 C   0  0  0  0  0  0  0  0  0  0  0  0
  -34.0670   10.0300  -30.3690 O   0  0  0  0  0  0  0  0  0  0  0  0
  -34.6890   11.7950  -33.0810 C   0  0  0  0  0  0  0  0  0  0  0  0
  -34.0810    8.7660  -32.2280 N   0  0  0  0  0  0  0  0  0  0  0  0
  -34.6300    7.6150  -31.5030 C   0  0  2  0  0  0  0  0  0  0  0  0
  -33.6610    7.1210  -30.4450 C   0  0  0  0  0  0  0  0  0  0  0  0
  -34.0830    6.5890  -29.4230 O   0  0  0  0  0  0  0  0  0  0  0  0
  -35.0200    6.4610  -32.4350 C   0  0  0  0  0  0  0  0  0  0  0  0
  -35.8950    5.3880  -31.7360 C   0  0  0  0  0  0  0  0  0  0  0  0
  -36.3330    4.2720  -32.6970 C   0  0  0  0  0  0  0  0  0  0  0  0
  -37.2080    4.7380  -33.7800 N   0  0  0  0  0  0  0  0  0  0  0  0
  -38.5350    4.7120  -33.7340 C   0  0  0  0  0  3  0  0  0  0  0  0
  -39.1470    4.2540  -32.6490 N   0  0  0  0  0  0  0  0  0  0  0  0
  -39.2490    5.1450  -34.7660 N   0  0  0  0  0  0  0  0  0  0  0  0
  -32.3650    7.3100  -30.6680 N   0  0  0  0  0  0  0  0  0  0  0  0
  -31.3890    6.8200  -29.6920 C   0  0  2  0  0  0  0  0  0  0  0  0
  -31.1050    7.7990  -28.5330 C   0  0  0  0  0  0  0  0  0  0  0  0
  -30.2670    7.5080  -27.6710 O   0  0  0  0  0  0  0  0  0  0  0  0
  -30.0990    6.3490  -30.3750 C   0  0  0  0  0  0  0  0  0  0  0  0
  -29.5330    7.3680  -31.1860 O   0  0  0  0  0  0  0  0  0  0  0  0
  -31.8050    8.9390  -28.5010 N   0  0  0  0  0  0  0  0  0  0  0  0
  -31.7500    9.8560  -27.3450 C   0  0  2  0  0  0  0  0  0  0  0  0
  -32.8920    9.5840  -26.3640 C   0  0  0  0  0  0  0  0  0  0  0  0
  -34.0210    9.2980  -26.7840 O   0  0  0  0  0  0  0  0  0  0  0  0
  -31.8610   11.3190  -27.7930 C   0  0  0  0  0  0  0  0  0  0  0  0
  -30.8350   11.7600  -28.8090 C   0  0  0  0  0  0  0  0  0  0  0  0
  -29.4330   11.8600  -28.2240 C   0  0  0  0  0  0  0  0  0  0  0  0
  -28.4560   11.7830  -29.0030 O   0  5  0  0  0  0  0  0  0  0  0  0
  -29.3100   12.0230  -26.9890 O   0  0  0  0  0  0  0  0  0  0  0  0
  -32.6150    9.6920  -25.0500 N   0  0  0  0  0  0  0  0  0  0  0  0
  -33.6900    9.5340  -24.0620 C   0  0  2  0  0  0  0  0  0  0  0  0
  -34.5730   10.7750  -24.0360 C   0  0  0  0  0  0  0  0  0  0  0  0
  -34.0800   11.8720  -24.3000 O   0  0  0  0  0  0  0  0  0  0  0  0
  -32.9270    9.4050  -22.7380 C   0  0  0  0  0  0  0  0  0  0  0  0
  -31.6730   10.2000  -22.9510 C   0  0  0  0  0  0  0  0  0  0  0  0
  -31.3130    9.9880  -24.4190 C   0  0  0  0  0  0  0  0  0  0  0  0
  -35.8560   10.6060  -23.7450 N   0  0  0  0  0  0  0  0  0  0  0  0
  -36.7630   11.7380  -23.6390 C   0  0  2  0  0  0  0  0  0  0  0  0
  -36.5980   12.3420  -22.2600 C   0  0  0  0  0  0  0  0  0  0  0  0
  -36.6730   11.6310  -21.2590 O   0  0  0  0  0  0  0  0  0  0  0  0
  -38.2120   11.2900  -23.8270 C   0  0  0  0  0  0  0  0  0  0  0  0
  -39.2460   12.4030  -23.6810 C   0  0  0  0  0  0  0  0  0  0  0  0
  -40.6670   11.8390  -23.7230 C   0  0  0  0  0  0  0  0  0  0  0  0
  -41.7320   12.9370  -23.8200 C   0  0  0  0  0  0  0  0  0  0  0  0
  -41.7150   13.8510  -22.6470 N   0  3  0  0  0  0  0  0  0  0  0  0
  -36.3630   13.6490  -22.2190 N   0  0  0  0  0  0  0  0  0  0  0  0
  -36.1630   14.3810  -20.9690 C   0  0  2  0  0  0  0  0  0  0  0  0
  -37.4240   15.1650  -20.6210 C   0  0  0  0  0  0  0  0  0  0  0  0
  -37.8470   16.0220  -21.4030 O   0  5  0  0  0  0  0  0  0  0  0  0
  -34.9970   15.3920  -21.1000 C   0  0  2  0  0  0  0  0  0  0  0  0
  -33.6610   14.6790  -21.3420 C   0  0  0  0  0  0  0  0  0  0  0  0
  -34.9360   16.2910  -19.8850 C   0  0  0  0  0  0  0  0  0  0  0  0
  -33.3580   13.5360  -20.3650 C   0  0  0  0  0  0  0  0  0  0  0  0
  -29.7940   18.9250  -32.5748 H   0  0  0  0  0  0  0  0  0  0  0  0
  -28.7394   19.8705  -33.4134 H   0  0  0  0  0  0  0  0  0  0  0  0
  -28.5273   19.6336  -31.7984 H   0  0  0  0  0  0  0  0  0  0  0  0
  -28.3427   17.5938  -33.8899 H   0  0  0  0  0  0  0  0  0  0  0  0
  -26.2283   19.0228  -32.2144 H   0  0  0  0  0  0  0  0  0  0  0  0
  -26.8807   20.1479  -34.2873 H   0  0  0  0  0  0  0  0  0  0  0  0
  -26.6270   18.6304  -35.2144 H   0  0  0  0  0  0  0  0  0  0  0  0
  -25.8083   16.5738  -32.1827 H   0  0  0  0  0  0  0  0  0  0  0  0
  -24.5795   17.4487  -33.1580 H   0  0  0  0  0  0  0  0  0  0  0  0
  -25.8959   16.5411  -33.9766 H   0  0  0  0  0  0  0  0  0  0  0  0
  -24.7509   20.1862  -35.5072 H   0  0  0  0  0  0  0  0  0  0  0  0
  -24.2284   18.6919  -34.6584 H   0  0  0  0  0  0  0  0  0  0  0  0
  -24.4822   20.2094  -33.7313 H   0  0  0  0  0  0  0  0  0  0  0  0
  -28.6027   15.5655  -33.1988 H   0  0  0  0  0  0  0  0  0  0  0  0
  -28.7668   15.0326  -30.2972 H   0  0  0  0  0  0  0  0  0  0  0  0
  -29.4702   12.7265  -31.0684 H   0  0  0  0  0  0  0  0  0  0  0  0
  -29.3485   13.3188  -32.7599 H   0  0  0  0  0  0  0  0  0  0  0  0
  -32.6670   14.3846  -32.7015 H   0  0  0  0  0  0  0  0  0  0  0  0
  -31.3659   13.5961  -33.5293 H   0  0  0  0  0  0  0  0  0  0  0  0
  -24.4137   14.1548  -30.2661 H   0  0  0  0  0  0  0  0  0  0  0  0
  -23.9565   14.0189  -27.9564 H   0  0  0  0  0  0  0  0  0  0  0  0
  -25.1806   12.7302  -27.6965 H   0  0  0  0  0  0  0  0  0  0  0  0
  -25.5446   15.7267  -27.8800 H   0  0  0  0  0  0  0  0  0  0  0  0
  -26.3028   14.5481  -26.7564 H   0  0  0  0  0  0  0  0  0  0  0  0
  -27.8743   13.8586  -28.3334 H   0  0  0  0  0  0  0  0  0  0  0  0
  -27.6143   15.5336  -28.9278 H   0  0  0  0  0  0  0  0  0  0  0  0
  -26.8192   11.5895  -29.4713 H   0  0  0  0  0  0  0  0  0  0  0  0
  -24.8913    9.4766  -29.8747 H   0  0  0  0  0  0  0  0  0  0  0  0
  -26.8123    7.9249  -29.8762 H   0  0  0  0  0  0  0  0  0  0  0  0
  -28.3787   10.3204  -29.8581 H   0  0  0  0  0  0  0  0  0  0  0  0
  -27.7052    8.4713  -27.6328 H   0  0  0  0  0  0  0  0  0  0  0  0
  -27.0561   10.1396  -27.7808 H   0  0  0  0  0  0  0  0  0  0  0  0
  -25.9313    8.7405  -27.7182 H   0  0  0  0  0  0  0  0  0  0  0  0
  -26.8088   11.4067  -32.0369 H   0  0  0  0  0  0  0  0  0  0  0  0
  -25.9914    9.5316  -34.2054 H   0  0  0  0  0  0  0  0  0  0  0  0
  -25.9584   11.3212  -34.3565 H   0  0  0  0  0  0  0  0  0  0  0  0
  -28.7206    9.7573  -32.8205 H   0  0  0  0  0  0  0  0  0  0  0  0
  -30.3753   10.9911  -34.9152 H   0  0  0  0  0  0  0  0  0  0  0  0
  -29.7795    8.6121  -35.6896 H   0  0  0  0  0  0  0  0  0  0  0  0
  -31.5044    9.1131  -35.7084 H   0  0  0  0  0  0  0  0  0  0  0  0
  -30.3073    7.1458  -33.4763 H   0  0  0  0  0  0  0  0  0  0  0  0
  -32.6658   11.0064  -34.3914 H   0  0  0  0  0  0  0  0  0  0  0  0
  -33.0263   11.8703  -31.7307 H   0  0  0  0  0  0  0  0  0  0  0  0
  -35.4417   12.0224  -32.3118 H   0  0  0  0  0  0  0  0  0  0  0  0
  -35.1196   11.1067  -33.8231 H   0  0  0  0  0  0  0  0  0  0  0  0
  -34.3814   12.7260  -33.5795 H   0  0  0  0  0  0  0  0  0  0  0  0
  -33.8464    8.6852  -33.1967 H   0  0  0  0  0  0  0  0  0  0  0  0
  -35.5437    7.9538  -30.9928 H   0  0  0  0  0  0  0  0  0  0  0  0
  -34.1010    5.9800  -32.8011 H   0  0  0  0  0  0  0  0  0  0  0  0
  -35.5827    6.8723  -33.2860 H   0  0  0  0  0  0  0  0  0  0  0  0
  -36.7928    5.8753  -31.3281 H   0  0  0  0  0  0  0  0  0  0  0  0
  -35.3159    4.9400  -30.9151 H   0  0  0  0  0  0  0  0  0  0  0  0
  -36.8725    3.5073  -32.1189 H   0  0  0  0  0  0  0  0  0  0  0  0
  -35.4329    3.8258  -33.1450 H   0  0  0  0  0  0  0  0  0  0  0  0
  -36.7634    5.1096  -34.6315 H   0  0  0  0  0  0  0  0  0  0  0  0
  -40.1760    4.2319  -32.6087 H   0  0  0  0  0  0  0  0  0  0  0  0
  -38.5930    3.9206  -31.8472 H   0  0  0  0  0  0  0  0  0  0  0  0
  -38.7740    5.5004  -35.6080 H   0  0  0  0  0  0  0  0  0  0  0  0
  -40.2780    5.1255  -34.7247 H   0  0  0  0  0  0  0  0  0  0  0  0
  -32.0587    7.7824  -31.4945 H   0  0  0  0  0  0  0  0  0  0  0  0
  -31.8411    5.9294  -29.2311 H   0  0  0  0  0  0  0  0  0  0  0  0
  -30.3271    5.4770  -31.0055 H   0  0  0  0  0  0  0  0  0  0  0  0
  -29.3705    6.0623  -29.6023 H   0  0  0  0  0  0  0  0  0  0  0  0
  -29.3285    8.1231  -30.6470 H   0  0  0  0  0  0  0  0  0  0  0  0
  -32.3819    9.1767  -29.2824 H   0  0  0  0  0  0  0  0  0  0  0  0
  -30.7895    9.7084  -26.8296 H   0  0  0  0  0  0  0  0  0  0  0  0
  -31.7542   11.9565  -26.9029 H   0  0  0  0  0  0  0  0  0  0  0  0
  -32.8590   11.4658  -28.2316 H   0  0  0  0  0  0  0  0  0  0  0  0
  -31.1256   12.7476  -29.1966 H   0  0  0  0  0  0  0  0  0  0  0  0
  -30.8210   11.0321  -29.6335 H   0  0  0  0  0  0  0  0  0  0  0  0
  -34.2983    8.6408  -24.2672 H   0  0  0  0  0  0  0  0  0  0  0  0
  -32.6891    8.3520  -22.5268 H   0  0  0  0  0  0  0  0  0  0  0  0
  -33.5156    9.8217  -21.9074 H   0  0  0  0  0  0  0  0  0  0  0  0
  -30.8671    9.8324  -22.2987 H   0  0  0  0  0  0  0  0  0  0  0  0
  -31.8522   11.2660  -22.7473 H   0  0  0  0  0  0  0  0  0  0  0  0
  -30.8640   10.8953  -24.8493 H   0  0  0  0  0  0  0  0  0  0  0  0
  -30.6176    9.1438  -24.5360 H   0  0  0  0  0  0  0  0  0  0  0  0
  -36.2068    9.6815  -23.5955 H   0  0  0  0  0  0  0  0  0  0  0  0
  -36.5112   12.4849  -24.4063 H   0  0  0  0  0  0  0  0  0  0  0  0
  -38.4321   10.5168  -23.0762 H   0  0  0  0  0  0  0  0  0  0  0  0
  -38.3102   10.8608  -24.8350 H   0  0  0  0  0  0  0  0  0  0  0  0
  -39.1197   13.1218  -24.5041 H   0  0  0  0  0  0  0  0  0  0  0  0
  -39.0904   12.9150  -22.7199 H   0  0  0  0  0  0  0  0  0  0  0  0
  -40.8428   11.2572  -22.8062 H   0  0  0  0  0  0  0  0  0  0  0  0
  -40.7592   11.1800  -24.5989 H   0  0  0  0  0  0  0  0  0  0  0  0
  -42.7226   12.4632  -23.8838 H   0  0  0  0  0  0  0  0  0  0  0  0
  -41.5485   13.5272  -24.7299 H   0  0  0  0  0  0  0  0  0  0  0  0
  -42.4303   14.5526  -22.7573 H   0  0  0  0  0  0  0  0  0  0  0  0
  -40.8137   14.2975  -22.5820 H   0  0  0  0  0  0  0  0  0  0  0  0
  -41.8896   13.3225  -21.8066 H   0  0  0  0  0  0  0  0  0  0  0  0
  -36.3210   14.1544  -23.0809 H   0  0  0  0  0  0  0  0  0  0  0  0
  -35.9383   13.6646  -20.1651 H   0  0  0  0  0  0  0  0  0  0  0  0
  -38.0315   14.9393  -19.5404 O   0  0  0  0  0  0  0  0  0  0  0  0
  -35.1987   16.0257  -21.9762 H   0  0  0  0  0  0  0  0  0  0  0  0
  -32.8554   15.4234  -21.2588 H   0  0  0  0  0  0  0  0  0  0  0  0
  -33.6735   14.2645  -22.3608 H   0  0  0  0  0  0  0  0  0  0  0  0
  -35.9094   16.7836  -19.7441 H   0  0  0  0  0  0  0  0  0  0  0  0
  -34.1570   17.0536  -20.0319 H   0  0  0  0  0  0  0  0  0  0  0  0
  -34.6973   15.6896  -18.9955 H   0  0  0  0  0  0  0  0  0  0  0  0
  -32.3853   13.0876  -20.6156 H   0  0  0  0  0  0  0  0  0  0  0  0
  -34.1447   12.7709  -20.4404 H   0  0  0  0  0  0  0  0  0  0  0  0
  -33.3266   13.9297  -19.3384 H   0  0  0  0  0  0  0  0  0  0  0  0
  1  2  1  0  0  0  0
  1 96  1  0  0  0  0
  1 97  1  0  0  0  0
  1 98  1  0  0  0  0
  2  3  1  0  0  0  0
  2  5  1  0  0  0  0
  2 99  1  6  0  0  0
  3  4  2  0  0  0  0
  3  9  1  0  0  0  0
  5  6  1  0  0  0  0
  5  7  1  0  0  0  0
  5100  1  1  0  0  0
  6  8  1  0  0  0  0
  6101  1  0  0  0  0
  6102  1  0  0  0  0
  7103  1  0  0  0  0
  7104  1  0  0  0  0
  7105  1  0  0  0  0
  8106  1  0  0  0  0
  8107  1  0  0  0  0
  8108  1  0  0  0  0
  9 10  1  0  0  0  0
  9109  1  0  0  0  0
 10 11  1  0  0  0  0
 10 13  1  0  0  0  0
 10110  1  1  0  0  0
 11 12  2  0  0  0  0
 11 17  1  0  0  0  0
 13 14  1  0  0  0  0
 13111  1  0  0  0  0
 13112  1  0  0  0  0
 14 15  2  0  0  0  0
 14 16  1  0  0  0  0
 16113  1  0  0  0  0
 16114  1  0  0  0  0
 17 18  1  0  0  0  0
 17 23  1  0  0  0  0
 18 19  1  0  0  0  0
 18 21  1  0  0  0  0
 18115  1  6  0  0  0
 19 20  2  0  0  0  0
 19 24  1  0  0  0  0
 21 22  1  0  0  0  0
 21116  1  0  0  0  0
 21117  1  0  0  0  0
 22 23  1  0  0  0  0
 22118  1  0  0  0  0
 22119  1  0  0  0  0
 23120  1  0  0  0  0
 23121  1  0  0  0  0
 24 25  1  0  0  0  0
 24122  1  0  0  0  0
 25 26  1  0  0  0  0
 25 28  1  0  0  0  0
 25123  1  1  0  0  0
 26 27  2  0  0  0  0
 26 31  1  0  0  0  0
 28 29  1  0  0  0  0
 28 30  1  0  0  0  0
 28124  1  6  0  0  0
 29125  1  0  0  0  0
 30126  1  0  0  0  0
 30127  1  0  0  0  0
 30128  1  0  0  0  0
 31 32  1  0  0  0  0
 31129  1  0  0  0  0
 32 33  1  0  0  0  0
 32130  1  0  0  0  0
 32131  1  0  0  0  0
 33 34  2  0  0  0  0
 33 35  1  0  0  0  0
 35 36  1  0  0  0  0
 35132  1  0  0  0  0
 36 37  1  0  0  0  0
 36 39  1  0  0  0  0
 36133  1  6  0  0  0
 37 38  2  0  0  0  0
 37 41  1  0  0  0  0
 39 40  1  0  0  0  0
 39134  1  0  0  0  0
 39135  1  0  0  0  0
 40136  1  0  0  0  0
 41 42  1  0  0  0  0
 41137  1  0  0  0  0
 42 43  1  0  0  0  0
 42 45  1  0  0  0  0
 42138  1  1  0  0  0
 43 44  2  0  0  0  0
 43 46  1  0  0  0  0
 45139  1  0  0  0  0
 45140  1  0  0  0  0
 45141  1  0  0  0  0
 46 47  1  0  0  0  0
 46142  1  0  0  0  0
 47 48  1  0  0  0  0
 47 50  1  0  0  0  0
 47143  1  1  0  0  0
 48 49  2  0  0  0  0
 48 57  1  0  0  0  0
 50 51  1  0  0  0  0
 50144  1  0  0  0  0
 50145  1  0  0  0  0
 51 52  1  0  0  0  0
 51146  1  0  0  0  0
 51147  1  0  0  0  0
 52 53  1  0  0  0  0
 52148  1  0  0  0  0
 52149  1  0  0  0  0
 53 54  1  0  0  0  0
 53150  1  0  0  0  0
 54 55  1  0  0  0  0
 54 56  1  0  0  0  0
 55151  1  0  0  0  0
 55152  1  0  0  0  0
 56153  1  0  0  0  0
 56154  1  0  0  0  0
 57 58  1  0  0  0  0
 57155  1  0  0  0  0
 58 59  1  0  0  0  0
 58 61  1  0  0  0  0
 58156  1  1  0  0  0
 59 60  2  0  0  0  0
 59 63  1  0  0  0  0
 61 62  1  0  0  0  0
 61157  1  0  0  0  0
 61158  1  0  0  0  0
 62159  1  0  0  0  0
 63 64  1  0  0  0  0
 63160  1  0  0  0  0
 64 65  1  0  0  0  0
 64 67  1  0  0  0  0
 64161  1  1  0  0  0
 65 66  2  0  0  0  0
 65 72  1  0  0  0  0
 67 68  1  0  0  0  0
 67162  1  0  0  0  0
 67163  1  0  0  0  0
 68 69  1  0  0  0  0
 68164  1  0  0  0  0
 68165  1  0  0  0  0
 69 70  1  0  0  0  0
 69 71  2  0  0  0  0
 72 73  1  0  0  0  0
 72 78  1  0  0  0  0
 73 74  1  0  0  0  0
 73 76  1  0  0  0  0
 73166  1  6  0  0  0
 74 75  2  0  0  0  0
 74 79  1  0  0  0  0
 76 77  1  0  0  0  0
 76167  1  0  0  0  0
 76168  1  0  0  0  0
 77 78  1  0  0  0  0
 77169  1  0  0  0  0
 77170  1  0  0  0  0
 78171  1  0  0  0  0
 78172  1  0  0  0  0
 79 80  1  0  0  0  0
 79173  1  0  0  0  0
 80 81  1  0  0  0  0
 80 83  1  0  0  0  0
 80174  1  6  0  0  0
 81 82  2  0  0  0  0
 81 88  1  0  0  0  0
 83 84  1  0  0  0  0
 83175  1  0  0  0  0
 83176  1  0  0  0  0
 84 85  1  0  0  0  0
 84177  1  0  0  0  0
 84178  1  0  0  0  0
 85 86  1  0  0  0  0
 85179  1  0  0  0  0
 85180  1  0  0  0  0
 86 87  1  0  0  0  0
 86181  1  0  0  0  0
 86182  1  0  0  0  0
 87183  1  0  0  0  0
 87184  1  0  0  0  0
 87185  1  0  0  0  0
 88 89  1  0  0  0  0
 88186  1  0  0  0  0
 89 90  1  0  0  0  0
 89 92  1  0  0  0  0
 89187  1  1  0  0  0
 90 91  1  0  0  0  0
 90188  2  0  0  0  0
 92 93  1  0  0  0  0
 92 94  1  0  0  0  0
 92189  1  6  0  0  0
 93 95  1  0  0  0  0
 93190  1  0  0  0  0
 93191  1  0  0  0  0
 94192  1  0  0  0  0
 94193  1  0  0  0  0
 94194  1  0  0  0  0
 95195  1  0  0  0  0
 95196  1  0  0  0  0
 95197  1  0  0  0  0
M  CHG  4   1   1  70  -1  87   1  91  -1
M  END
