4est_ligand
 OpenBabel08222323353D

 72 73  0  0  1  0  0  0  0  0999 V2000
  -15.7140   18.5650   39.5850 C   0  0  0  0  0  0  0  0  0  0  0  0
  -15.1390   17.4920   39.2350 O   0  0  0  0  0  0  0  0  0  0  0  0
  -16.6380   18.6530   40.8010 C   0  0  0  0  0  0  0  0  0  0  0  0
  -15.6320   19.7190   38.9060 N   0  0  0  0  0  0  0  0  0  0  0  0
  -14.8230   19.8430   37.7090 C   0  0  2  0  0  0  0  0  0  0  0  0
  -13.5520   20.6370   38.0640 C   0  0  0  0  0  0  0  0  0  0  0  0
  -13.5300   21.8720   38.0000 O   0  0  0  0  0  0  0  0  0  0  0  0
  -15.6560   20.5910   36.6980 C   0  0  0  0  0  0  0  0  0  0  0  0
  -12.5350   19.9370   38.5850 N   0  0  0  0  0  0  0  0  0  0  0  0
  -11.2670   20.5480   38.9520 C   0  0  2  0  0  0  0  0  0  0  0  0
  -10.8150   21.3500   37.7690 C   0  0  0  0  0  0  0  0  0  0  0  0
  -10.7290   20.8130   36.6500 O   0  0  0  0  0  0  0  0  0  0  0  0
  -10.2700   19.4580   39.1440 C   0  0  0  0  0  0  0  0  0  0  0  0
  -10.9600   18.1360   38.7770 C   0  0  0  0  0  0  0  0  0  0  0  0
  -12.4030   18.5000   38.4260 C   0  0  0  0  0  0  0  0  0  0  0  0
  -10.5810   22.6310   38.0010 N   0  0  0  0  0  0  0  0  0  0  0  0
  -10.1080   23.6630   37.0890 C   0  0  2  0  0  0  0  0  0  0  0  0
   -8.5480   23.7550   37.1250 C   0  0  2  0  0  0  0  0  0  0  0  0
   -8.1160   24.9530   36.5630 O   0  0  0  0  0  0  0  0  0  0  0  0
  -10.7780   24.9550   37.5420 C   0  0  0  0  0  0  0  0  0  0  0  0
  -12.1960   24.7750   37.1310 C   0  0  0  0  0  0  0  0  0  0  0  0
  -10.6960   25.1770   39.0450 C   0  0  0  0  0  0  0  0  0  0  0  0
   -7.9720   22.7280   36.1770 C   0  0  0  0  0  0  0  0  0  0  0  0
   -7.9340   21.4980   36.5290 F   0  0  0  0  0  0  0  0  0  0  0  0
   -8.6720   22.5810   35.1320 F   0  0  0  0  0  0  0  0  0  0  0  0
   -6.7660   22.9560   35.3890 C   0  0  0  0  0  0  0  0  0  0  0  0
   -5.9140   22.0690   35.4780 O   0  0  0  0  0  0  0  0  0  0  0  0
   -7.0740   23.4350   34.1790 N   0  0  0  0  0  0  0  0  0  0  0  0
   -6.0850   23.4870   33.1180 C   0  0  0  0  0  0  0  0  0  0  0  0
   -6.8730   23.4210   31.8320 C   0  0  0  0  0  0  0  0  0  0  0  0
   -6.1460   23.8760   30.5680 C   0  0  0  0  0  0  0  0  0  0  0  0
   -6.7500   24.8570   29.7430 C   0  0  0  0  0  0  0  0  0  0  0  0
   -6.1170   25.2590   28.5520 C   0  0  0  0  0  0  0  0  0  0  0  0
   -4.8410   24.7240   28.2550 C   0  0  0  0  0  0  0  0  0  0  0  0
   -4.2110   23.7600   29.0910 C   0  0  0  0  0  0  0  0  0  0  0  0
   -4.8920   23.2880   30.2330 C   0  0  0  0  0  0  0  0  0  0  0  0
  -17.0153   19.6814   40.9011 H   0  0  0  0  0  0  0  0  0  0  0  0
  -16.0786   18.3779   41.7073 H   0  0  0  0  0  0  0  0  0  0  0  0
  -17.4845   17.9631   40.6690 H   0  0  0  0  0  0  0  0  0  0  0  0
  -16.1420   20.5143   39.2338 H   0  0  0  0  0  0  0  0  0  0  0  0
  -14.5495   18.8517   37.3186 H   0  0  0  0  0  0  0  0  0  0  0  0
  -15.0824   20.7110   35.7671 H   0  0  0  0  0  0  0  0  0  0  0  0
  -15.9164   21.5818   37.0985 H   0  0  0  0  0  0  0  0  0  0  0  0
  -16.5766   20.0256   36.4911 H   0  0  0  0  0  0  0  0  0  0  0  0
  -11.3638   21.1701   39.8540 H   0  0  0  0  0  0  0  0  0  0  0  0
   -9.9393   19.4312   40.1927 H   0  0  0  0  0  0  0  0  0  0  0  0
   -9.4014   19.6232   38.4897 H   0  0  0  0  0  0  0  0  0  0  0  0
  -10.9371   17.4426   39.6306 H   0  0  0  0  0  0  0  0  0  0  0  0
  -10.4618   17.6712   37.9135 H   0  0  0  0  0  0  0  0  0  0  0  0
  -12.6213   18.2144   37.3864 H   0  0  0  0  0  0  0  0  0  0  0  0
  -13.0977   17.9807   39.1026 H   0  0  0  0  0  0  0  0  0  0  0  0
  -10.7539   22.9346   38.9380 H   0  0  0  0  0  0  0  0  0  0  0  0
  -10.4216   23.4271   36.0614 H   0  0  0  0  0  0  0  0  0  0  0  0
   -8.1770   23.6267   38.1525 H   0  0  0  0  0  0  0  0  0  0  0  0
   -8.4796   25.6808   37.0534 H   0  0  0  0  0  0  0  0  0  0  0  0
  -10.3275   25.8171   37.0284 H   0  0  0  0  0  0  0  0  0  0  0  0
  -12.7761   25.6651   37.4158 H   0  0  0  0  0  0  0  0  0  0  0  0
  -12.6135   23.8894   37.6324 H   0  0  0  0  0  0  0  0  0  0  0  0
  -12.2472   24.6374   36.0409 H   0  0  0  0  0  0  0  0  0  0  0  0
   -9.6443   25.3090   39.3393 H   0  0  0  0  0  0  0  0  0  0  0  0
  -11.1164   24.3053   39.5679 H   0  0  0  0  0  0  0  0  0  0  0  0
  -11.2679   26.0772   39.3144 H   0  0  0  0  0  0  0  0  0  0  0  0
   -8.0019   23.7631   34.0021 H   0  0  0  0  0  0  0  0  0  0  0  0
   -5.3963   22.6325   33.1916 H   0  0  0  0  0  0  0  0  0  0  0  0
   -5.5127   24.4249   33.1709 H   0  0  0  0  0  0  0  0  0  0  0  0
   -7.7642   24.0545   31.9523 H   0  0  0  0  0  0  0  0  0  0  0  0
   -7.1832   22.3763   31.6824 H   0  0  0  0  0  0  0  0  0  0  0  0
   -7.6984   25.2973   30.0288 H   0  0  0  0  0  0  0  0  0  0  0  0
   -6.5951   25.9612   27.8787 H   0  0  0  0  0  0  0  0  0  0  0  0
   -4.3268   25.0594   27.3616 H   0  0  0  0  0  0  0  0  0  0  0  0
   -3.2193   23.3925   28.8532 H   0  0  0  0  0  0  0  0  0  0  0  0
   -4.4708   22.4961   30.8417 H   0  0  0  0  0  0  0  0  0  0  0  0
  1  2  2  0  0  0  0
  1  3  1  0  0  0  0
  1  4  1  0  0  0  0
  3 37  1  0  0  0  0
  3 38  1  0  0  0  0
  3 39  1  0  0  0  0
  4  5  1  0  0  0  0
  4 40  1  0  0  0  0
  5  6  1  0  0  0  0
  5  8  1  0  0  0  0
  5 41  1  6  0  0  0
  6  7  2  0  0  0  0
  6  9  1  0  0  0  0
  8 42  1  0  0  0  0
  8 43  1  0  0  0  0
  8 44  1  0  0  0  0
  9 10  1  0  0  0  0
  9 15  1  0  0  0  0
 10 11  1  0  0  0  0
 10 13  1  0  0  0  0
 10 45  1  1  0  0  0
 11 12  2  0  0  0  0
 11 16  1  0  0  0  0
 13 14  1  0  0  0  0
 13 46  1  0  0  0  0
 13 47  1  0  0  0  0
 14 15  1  0  0  0  0
 14 48  1  0  0  0  0
 14 49  1  0  0  0  0
 15 50  1  0  0  0  0
 15 51  1  0  0  0  0
 16 17  1  0  0  0  0
 16 52  1  0  0  0  0
 17 18  1  0  0  0  0
 17 20  1  0  0  0  0
 17 53  1  6  0  0  0
 18 19  1  0  0  0  0
 18 23  1  0  0  0  0
 18 54  1  1  0  0  0
 19 55  1  0  0  0  0
 20 21  1  0  0  0  0
 20 22  1  0  0  0  0
 20 56  1  0  0  0  0
 21 57  1  0  0  0  0
 21 58  1  0  0  0  0
 21 59  1  0  0  0  0
 22 60  1  0  0  0  0
 22 61  1  0  0  0  0
 22 62  1  0  0  0  0
 23 24  1  0  0  0  0
 23 25  1  0  0  0  0
 23 26  1  0  0  0  0
 26 27  2  0  0  0  0
 26 28  1  0  0  0  0
 28 29  1  0  0  0  0
 28 63  1  0  0  0  0
 29 30  1  0  0  0  0
 29 64  1  0  0  0  0
 29 65  1  0  0  0  0
 30 31  1  0  0  0  0
 30 66  1  0  0  0  0
 30 67  1  0  0  0  0
 31 32  2  0  0  0  0
 31 36  1  0  0  0  0
 32 33  1  0  0  0  0
 32 68  1  0  0  0  0
 33 34  2  0  0  0  0
 33 69  1  0  0  0  0
 34 35  1  0  0  0  0
 34 70  1  0  0  0  0
 35 36  2  0  0  0  0
 35 71  1  0  0  0  0
 36 72  1  0  0  0  0
M  END
