4exg_ligand
 OpenBabel08222323353D

 71 73  0  0  1  0  0  0  0  0999 V2000
    7.3340    2.3220  -18.3080 O   0  0  0  0  0  0  0  0  0  0  0  0
    6.4180    1.6320  -17.8900 C   0  0  0  0  0  0  0  0  0  0  0  0
    6.7000    0.6360  -16.7630 C   0  0  0  0  0  0  0  0  0  0  0  0
    5.1800    1.6990  -18.4330 N   0  0  0  0  0  0  0  0  0  0  0  0
    4.9170    2.6490  -19.5630 C   0  0  1  0  0  0  0  0  0  0  0  0
    4.1880    1.7900  -20.5780 C   0  0  0  0  0  0  0  0  0  0  0  0
    4.9930    0.5970  -21.0730 C   0  0  0  0  0  0  0  0  0  0  0  0
    4.3290   -0.6260  -21.2780 C   0  0  0  0  0  0  0  0  0  0  0  0
    5.0650   -1.7310  -21.7440 C   0  0  0  0  0  0  0  0  0  0  0  0
    6.4440   -1.6530  -21.9750 C   0  0  0  0  0  0  0  0  0  0  0  0
    7.1070   -0.4380  -21.7280 C   0  0  0  0  0  0  0  0  0  0  0  0
    6.3850    0.6940  -21.2930 C   0  0  0  0  0  0  0  0  0  0  0  0
    4.0200    3.7910  -19.0140 C   0  0  2  0  0  0  0  0  0  0  0  0
    3.6260    4.7010  -20.0540 O   0  0  0  0  0  0  0  0  0  0  0  0
    4.8010    4.6050  -17.9820 C   0  0  0  0  0  0  0  0  0  0  0  0
    3.9550    5.6850  -17.5260 N   0  3  0  0  0  0  0  0  0  0  0  0
    4.5870    6.9280  -17.0110 C   0  0  1  0  0  0  0  0  0  0  0  0
    5.3230    6.5480  -15.7140 C   0  0  0  0  0  0  0  0  0  0  0  0
    6.3220    7.6450  -15.2470 C   0  0  0  0  0  0  0  0  0  0  0  0
    6.9700    7.1250  -13.9510 C   0  0  0  0  0  0  0  0  0  0  0  0
    5.6110    9.0150  -15.1020 C   0  0  0  0  0  0  0  0  0  0  0  0
    5.6250    7.4140  -17.9440 C   0  0  0  0  0  0  0  0  0  0  0  0
    5.3720    7.5350  -19.3720 C   0  0  0  0  0  0  0  0  0  0  0  0
    6.5850    7.9970  -19.9910 C   0  0  0  0  0  0  0  0  0  0  0  0
    7.9130    8.2310  -18.8370 S   0  0  0  0  0  0  0  0  0  0  0  0
    6.9700    7.7880  -17.5310 C   0  0  0  0  0  0  0  0  0  0  0  0
    7.3760    7.7630  -16.2290 O   0  0  0  0  0  0  0  0  0  0  0  0
    6.8860    8.3020  -21.4460 C   0  0  0  0  0  0  0  0  0  0  0  0
    6.5530    9.7440  -21.8420 C   0  0  0  0  0  0  0  0  0  0  0  0
    7.4150   10.7820  -21.0870 C   0  0  0  0  0  0  0  0  0  0  0  0
    5.1020   10.0610  -21.5220 C   0  0  0  0  0  0  0  0  0  0  0  0
    6.7540    9.9560  -23.3370 C   0  0  0  0  0  0  0  0  0  0  0  0
    5.7743    0.0995  -16.5077 H   0  0  0  0  0  0  0  0  0  0  0  0
    7.0659    1.1774  -15.8782 H   0  0  0  0  0  0  0  0  0  0  0  0
    7.4624   -0.0849  -17.0930 H   0  0  0  0  0  0  0  0  0  0  0  0
    4.4450    1.1184  -18.0827 H   0  0  0  0  0  0  0  0  0  0  0  0
    5.8462    3.0605  -19.9840 H   0  0  0  0  0  0  0  0  0  0  0  0
    3.9338    2.4188  -21.4440 H   0  0  0  0  0  0  0  0  0  0  0  0
    3.2642    1.4148  -20.1135 H   0  0  0  0  0  0  0  0  0  0  0  0
    3.2670   -0.7158  -21.0801 H   0  0  0  0  0  0  0  0  0  0  0  0
    4.5510   -2.6673  -21.9291 H   0  0  0  0  0  0  0  0  0  0  0  0
    6.9913   -2.5153  -22.3383 H   0  0  0  0  0  0  0  0  0  0  0  0
    8.1792   -0.3703  -21.8725 H   0  0  0  0  0  0  0  0  0  0  0  0
    6.8971    1.6351  -21.1282 H   0  0  0  0  0  0  0  0  0  0  0  0
    3.1248    3.3529  -18.5485 H   0  0  0  0  0  0  0  0  0  0  0  0
    3.1380    4.2288  -20.7183 H   0  0  0  0  0  0  0  0  0  0  0  0
    5.7121    5.0145  -18.4426 H   0  0  0  0  0  0  0  0  0  0  0  0
    5.0763    3.9632  -17.1321 H   0  0  0  0  0  0  0  0  0  0  0  0
    3.3802    5.3169  -16.7843 H   0  0  0  0  0  0  0  0  0  0  0  0
    3.3709    5.9510  -18.3033 H   0  0  0  0  0  0  0  0  0  0  0  0
    3.8279    7.7040  -16.8333 H   0  0  0  0  0  0  0  0  0  0  0  0
    5.8799    5.6151  -15.8858 H   0  0  0  0  0  0  0  0  0  0  0  0
    4.5782    6.3895  -14.9202 H   0  0  0  0  0  0  0  0  0  0  0  0
    7.6895    7.8683  -13.5770 H   0  0  0  0  0  0  0  0  0  0  0  0
    7.4931    6.1794  -14.1564 H   0  0  0  0  0  0  0  0  0  0  0  0
    6.1905    6.9558  -13.1936 H   0  0  0  0  0  0  0  0  0  0  0  0
    5.1791    9.3082  -16.0702 H   0  0  0  0  0  0  0  0  0  0  0  0
    6.3394    9.7740  -14.7805 H   0  0  0  0  0  0  0  0  0  0  0  0
    4.8099    8.9349  -14.3524 H   0  0  0  0  0  0  0  0  0  0  0  0
    4.4340    7.3155  -19.8798 H   0  0  0  0  0  0  0  0  0  0  0  0
    6.2943    7.6212  -22.0756 H   0  0  0  0  0  0  0  0  0  0  0  0
    7.9574    8.1289  -21.6251 H   0  0  0  0  0  0  0  0  0  0  0  0
    7.1344   11.7956  -21.4093 H   0  0  0  0  0  0  0  0  0  0  0  0
    8.4780   10.6076  -21.3098 H   0  0  0  0  0  0  0  0  0  0  0  0
    7.2459   10.6814  -20.0047 H   0  0  0  0  0  0  0  0  0  0  0  0
    4.4474    9.3446  -22.0399 H   0  0  0  0  0  0  0  0  0  0  0  0
    4.8669   11.0817  -21.8580 H   0  0  0  0  0  0  0  0  0  0  0  0
    4.9411    9.9861  -20.4364 H   0  0  0  0  0  0  0  0  0  0  0  0
    7.7983    9.7339  -23.6017 H   0  0  0  0  0  0  0  0  0  0  0  0
    6.5251   11.0010  -23.5932 H   0  0  0  0  0  0  0  0  0  0  0  0
    6.0838    9.2862  -23.8957 H   0  0  0  0  0  0  0  0  0  0  0  0
  1  2  2  0  0  0  0
  2  3  1  0  0  0  0
  2  4  1  0  0  0  0
  3 33  1  0  0  0  0
  3 34  1  0  0  0  0
  3 35  1  0  0  0  0
  4  5  1  0  0  0  0
  4 36  1  0  0  0  0
  5  6  1  0  0  0  0
  5 13  1  0  0  0  0
  5 37  1  6  0  0  0
  6  7  1  0  0  0  0
  6 38  1  0  0  0  0
  6 39  1  0  0  0  0
  7  8  2  0  0  0  0
  7 12  1  0  0  0  0
  8  9  1  0  0  0  0
  8 40  1  0  0  0  0
  9 10  2  0  0  0  0
  9 41  1  0  0  0  0
 10 11  1  0  0  0  0
 10 42  1  0  0  0  0
 11 12  2  0  0  0  0
 11 43  1  0  0  0  0
 12 44  1  0  0  0  0
 13 14  1  0  0  0  0
 13 15  1  0  0  0  0
 13 45  1  1  0  0  0
 14 46  1  0  0  0  0
 15 16  1  0  0  0  0
 15 47  1  0  0  0  0
 15 48  1  0  0  0  0
 16 17  1  0  0  0  0
 16 49  1  0  0  0  0
 16 50  1  0  0  0  0
 17 18  1  0  0  0  0
 17 22  1  0  0  0  0
 17 51  1  1  0  0  0
 18 19  1  0  0  0  0
 18 52  1  0  0  0  0
 18 53  1  0  0  0  0
 19 20  1  0  0  0  0
 19 21  1  0  0  0  0
 19 27  1  0  0  0  0
 20 54  1  0  0  0  0
 20 55  1  0  0  0  0
 20 56  1  0  0  0  0
 21 57  1  0  0  0  0
 21 58  1  0  0  0  0
 21 59  1  0  0  0  0
 22 23  1  0  0  0  0
 22 26  2  0  0  0  0
 23 24  2  0  0  0  0
 23 60  1  0  0  0  0
 24 25  1  0  0  0  0
 24 28  1  0  0  0  0
 25 26  1  0  0  0  0
 26 27  1  0  0  0  0
 28 29  1  0  0  0  0
 28 61  1  0  0  0  0
 28 62  1  0  0  0  0
 29 30  1  0  0  0  0
 29 31  1  0  0  0  0
 29 32  1  0  0  0  0
 30 63  1  0  0  0  0
 30 64  1  0  0  0  0
 30 65  1  0  0  0  0
 31 66  1  0  0  0  0
 31 67  1  0  0  0  0
 31 68  1  0  0  0  0
 32 69  1  0  0  0  0
 32 70  1  0  0  0  0
 32 71  1  0  0  0  0
M  CHG  1  16   1
M  END
