4eyr_ligand
 OpenBabel08222323353D

 98101  0  0  1  0  0  0  0  0999 V2000
   12.0480   -3.7360    4.9050 C   0  0  0  0  0  0  0  0  0  0  0  0
   12.0210   -3.7540    3.5250 C   0  0  0  0  0  0  0  0  0  0  0  0
   11.5240   -2.2750    2.7360 S   0  0  0  0  0  0  0  0  0  0  0  0
   11.3390   -1.7070    4.3820 C   0  0  0  0  0  0  0  0  0  0  0  0
   11.6750   -2.5490    5.3820 N   0  0  0  0  0  0  0  0  0  0  0  0
   12.3650   -4.9210    2.6340 C   0  0  0  0  0  0  0  0  0  0  0  0
   12.9190   -4.5380    1.3940 O   0  0  0  0  0  0  0  0  0  0  0  0
   14.0340   -5.3350    0.9260 C   0  0  0  0  0  0  0  0  0  0  0  0
   14.7540   -5.8970    1.7290 O   0  0  0  0  0  0  0  0  0  0  0  0
   14.2240   -5.3970   -0.3830 N   0  0  0  0  0  0  0  0  0  0  0  0
   14.9390   -6.4640   -1.0590 C   0  0  2  0  0  0  0  0  0  0  0  0
   16.4160   -6.5530   -0.6470 C   0  0  2  0  0  0  0  0  0  0  0  0
   16.6970   -7.7880    0.2120 C   0  0  0  0  0  0  0  0  0  0  0  0
   16.8340   -8.9850   -0.7200 C   0  0  2  0  0  0  0  0  0  0  0  0
   14.7980   -6.2110   -2.5590 C   0  0  0  0  0  0  0  0  0  0  0  0
   13.6290   -5.2830   -2.7530 C   0  0  0  0  0  0  0  0  0  0  0  0
   12.4940   -5.7450   -3.4220 C   0  0  0  0  0  0  0  0  0  0  0  0
   11.4090   -4.8870   -3.5660 C   0  0  0  0  0  0  0  0  0  0  0  0
   11.4710   -3.5930   -3.0440 C   0  0  0  0  0  0  0  0  0  0  0  0
   12.6040   -3.1420   -2.3680 C   0  0  0  0  0  0  0  0  0  0  0  0
   13.6860   -3.9860   -2.2230 C   0  0  0  0  0  0  0  0  0  0  0  0
   16.8460   -5.3600    0.0100 O   0  0  0  0  0  0  0  0  0  0  0  0
   17.6140  -10.1170   -0.0610 C   0  0  0  0  0  0  0  0  0  0  0  0
   16.7200  -11.2050    0.4890 C   0  0  0  0  0  0  0  0  0  0  0  0
   16.9590  -12.5310    0.1250 C   0  0  0  0  0  0  0  0  0  0  0  0
   16.1580  -13.5600    0.6190 C   0  0  0  0  0  0  0  0  0  0  0  0
   15.1140  -13.2540    1.4880 C   0  0  0  0  0  0  0  0  0  0  0  0
   14.8720  -11.9360    1.8640 C   0  0  0  0  0  0  0  0  0  0  0  0
   15.6760  -10.9110    1.3670 C   0  0  0  0  0  0  0  0  0  0  0  0
   17.5390   -8.5080   -1.8870 N   0  0  0  0  0  0  0  0  0  0  0  0
   18.1520  -10.7720   -3.2820 N   0  0  0  0  0  0  0  0  0  0  0  0
   17.9020   -9.5140   -4.0150 C   0  0  2  0  0  0  0  0  0  0  0  0
   17.0730   -8.6180   -3.1280 C   0  0  0  0  0  0  0  0  0  0  0  0
   16.0670   -8.0220   -3.5080 O   0  0  0  0  0  0  0  0  0  0  0  0
   17.3700   -9.6400   -5.4780 C   0  0  0  0  0  0  0  0  0  0  0  0
   16.1480   -8.7950   -5.8540 C   0  0  0  0  0  0  0  0  0  0  0  0
   18.4150   -9.3410   -6.5570 C   0  0  0  0  0  0  0  0  0  0  0  0
   19.3180  -11.3790   -2.9050 C   0  0  0  0  0  0  0  0  0  0  0  0
   19.2510  -12.6160   -2.3690 N   0  0  0  0  0  0  0  0  0  0  0  0
   20.3760  -13.2790   -1.7010 C   0  0  0  0  0  0  0  0  0  0  0  0
   20.4320  -10.8870   -3.0320 O   0  0  0  0  0  0  0  0  0  0  0  0
   20.6160  -12.9050   -0.2490 C   0  0  0  0  0  0  0  0  0  0  0  0
   21.2250  -11.7300    0.1830 C   0  0  0  0  0  0  0  0  0  0  0  0
   21.4170  -11.5520    1.9170 S   0  0  0  0  0  0  0  0  0  0  0  0
   20.6370  -13.1270    1.9790 C   0  0  0  0  0  0  0  0  0  0  0  0
   20.2990  -13.6890    0.8010 N   0  0  0  0  0  0  0  0  0  0  0  0
   20.4570  -13.6550    3.3500 C   0  0  0  0  0  0  0  0  0  0  0  0
   21.5840  -14.6280    3.6950 C   0  0  0  0  0  0  0  0  0  0  0  0
   19.0860  -14.3120    3.4700 C   0  0  0  0  0  0  0  0  0  0  0  0
   18.0580  -13.4600   -2.4460 C   0  0  0  0  0  0  0  0  0  0  0  0
   12.3372   -4.5835    5.5247 H   0  0  0  0  0  0  0  0  0  0  0  0
   10.9647   -0.7062    4.5922 H   0  0  0  0  0  0  0  0  0  0  0  0
   11.4467   -5.4955    2.4425 H   0  0  0  0  0  0  0  0  0  0  0  0
   13.0928   -5.5572    3.1589 H   0  0  0  0  0  0  0  0  0  0  0  0
   13.8495   -4.6586   -0.9438 H   0  0  0  0  0  0  0  0  0  0  0  0
   14.4607   -7.4226   -0.8095 H   0  0  0  0  0  0  0  0  0  0  0  0
   17.0073   -6.6534   -1.5691 H   0  0  0  0  0  0  0  0  0  0  0  0
   15.8652   -7.9531    0.9126 H   0  0  0  0  0  0  0  0  0  0  0  0
   17.6299   -7.6458    0.7773 H   0  0  0  0  0  0  0  0  0  0  0  0
   15.8373   -9.3532   -1.0045 H   0  0  0  0  0  0  0  0  0  0  0  0
   14.6155   -7.1600   -3.0845 H   0  0  0  0  0  0  0  0  0  0  0  0
   15.7153   -5.7462   -2.9494 H   0  0  0  0  0  0  0  0  0  0  0  0
   12.4592   -6.7522   -3.8212 H   0  0  0  0  0  0  0  0  0  0  0  0
   10.5167   -5.2219   -4.0825 H   0  0  0  0  0  0  0  0  0  0  0  0
   10.6238   -2.9280   -3.1665 H   0  0  0  0  0  0  0  0  0  0  0  0
   12.6346   -2.1381   -1.9603 H   0  0  0  0  0  0  0  0  0  0  0  0
   14.5749   -3.6484   -1.7024 H   0  0  0  0  0  0  0  0  0  0  0  0
   16.3824   -5.2690    0.8342 H   0  0  0  0  0  0  0  0  0  0  0  0
   18.2078   -9.6995    0.7655 H   0  0  0  0  0  0  0  0  0  0  0  0
   18.2876  -10.5609   -0.8088 H   0  0  0  0  0  0  0  0  0  0  0  0
   17.7758  -12.7634   -0.5487 H   0  0  0  0  0  0  0  0  0  0  0  0
   16.3462  -14.5875    0.3295 H   0  0  0  0  0  0  0  0  0  0  0  0
   14.4852  -14.0480    1.8744 H   0  0  0  0  0  0  0  0  0  0  0  0
   14.0588  -11.7064    2.5430 H   0  0  0  0  0  0  0  0  0  0  0  0
   15.4899   -9.8849    1.6629 H   0  0  0  0  0  0  0  0  0  0  0  0
   18.4282   -8.0701   -1.7544 H   0  0  0  0  0  0  0  0  0  0  0  0
   17.3244  -11.2657   -3.0150 H   0  0  0  0  0  0  0  0  0  0  0  0
   18.8828   -9.0267   -4.1177 H   0  0  0  0  0  0  0  0  0  0  0  0
   17.0752  -10.6941   -5.5871 H   0  0  0  0  0  0  0  0  0  0  0  0
   15.8833   -8.9807   -6.9054 H   0  0  0  0  0  0  0  0  0  0  0  0
   16.3833   -7.7291   -5.7179 H   0  0  0  0  0  0  0  0  0  0  0  0
   15.3003   -9.0687   -5.2087 H   0  0  0  0  0  0  0  0  0  0  0  0
   19.3291   -9.9175   -6.3519 H   0  0  0  0  0  0  0  0  0  0  0  0
   18.6504   -8.2665   -6.5518 H   0  0  0  0  0  0  0  0  0  0  0  0
   18.0162   -9.6243   -7.5422 H   0  0  0  0  0  0  0  0  0  0  0  0
   21.2893  -13.0366   -2.2641 H   0  0  0  0  0  0  0  0  0  0  0  0
   20.1971  -14.3636   -1.7418 H   0  0  0  0  0  0  0  0  0  0  0  0
   21.5626  -10.9657   -0.5154 H   0  0  0  0  0  0  0  0  0  0  0  0
   20.5004  -12.8145    4.0583 H   0  0  0  0  0  0  0  0  0  0  0  0
   21.4374  -15.0119    4.7154 H   0  0  0  0  0  0  0  0  0  0  0  0
   22.5504  -14.1060    3.6350 H   0  0  0  0  0  0  0  0  0  0  0  0
   21.5753  -15.4665    2.9830 H   0  0  0  0  0  0  0  0  0  0  0  0
   18.3053  -13.5806    3.2142 H   0  0  0  0  0  0  0  0  0  0  0  0
   18.9363  -14.6622    4.5019 H   0  0  0  0  0  0  0  0  0  0  0  0
   19.0275  -15.1670    2.7804 H   0  0  0  0  0  0  0  0  0  0  0  0
   17.2523  -12.9105   -2.9549 H   0  0  0  0  0  0  0  0  0  0  0  0
   17.7332  -13.7294   -1.4302 H   0  0  0  0  0  0  0  0  0  0  0  0
   18.2916  -14.3745   -3.0109 H   0  0  0  0  0  0  0  0  0  0  0  0
  1  5  1  0  0  0  0
  1 51  1  0  0  0  0
  2  1  2  0  0  0  0
  2  3  1  0  0  0  0
  3  4  1  0  0  0  0
  4  5  2  0  0  0  0
  4 52  1  0  0  0  0
  6  2  1  0  0  0  0
  6 53  1  0  0  0  0
  6 54  1  0  0  0  0
  7  6  1  0  0  0  0
  8  7  1  0  0  0  0
  8  9  2  0  0  0  0
 10  8  1  0  0  0  0
 10 55  1  0  0  0  0
 11 10  1  0  0  0  0
 11 15  1  0  0  0  0
 11 56  1  1  0  0  0
 12 11  1  0  0  0  0
 12 22  1  0  0  0  0
 12 57  1  6  0  0  0
 13 12  1  0  0  0  0
 13 58  1  0  0  0  0
 13 59  1  0  0  0  0
 14 13  1  0  0  0  0
 14 23  1  0  0  0  0
 14 60  1  6  0  0  0
 15 16  1  0  0  0  0
 15 61  1  0  0  0  0
 15 62  1  0  0  0  0
 16 17  2  0  0  0  0
 16 21  1  0  0  0  0
 17 18  1  0  0  0  0
 17 63  1  0  0  0  0
 18 19  2  0  0  0  0
 18 64  1  0  0  0  0
 19 65  1  0  0  0  0
 20 19  1  0  0  0  0
 20 66  1  0  0  0  0
 21 20  2  0  0  0  0
 21 67  1  0  0  0  0
 22 68  1  0  0  0  0
 23 24  1  0  0  0  0
 23 69  1  0  0  0  0
 23 70  1  0  0  0  0
 24 25  2  0  0  0  0
 24 29  1  0  0  0  0
 25 26  1  0  0  0  0
 25 71  1  0  0  0  0
 26 27  2  0  0  0  0
 26 72  1  0  0  0  0
 27 73  1  0  0  0  0
 28 27  1  0  0  0  0
 28 74  1  0  0  0  0
 29 28  2  0  0  0  0
 29 75  1  0  0  0  0
 30 14  1  0  0  0  0
 30 76  1  0  0  0  0
 31 38  1  0  0  0  0
 31 77  1  0  0  0  0
 32 31  1  0  0  0  0
 32 33  1  0  0  0  0
 32 35  1  0  0  0  0
 32 78  1  6  0  0  0
 33 30  1  0  0  0  0
 33 34  2  0  0  0  0
 35 36  1  0  0  0  0
 35 37  1  0  0  0  0
 35 79  1  0  0  0  0
 36 80  1  0  0  0  0
 36 81  1  0  0  0  0
 36 82  1  0  0  0  0
 37 83  1  0  0  0  0
 37 84  1  0  0  0  0
 37 85  1  0  0  0  0
 38 39  1  0  0  0  0
 38 41  2  0  0  0  0
 39 40  1  0  0  0  0
 39 50  1  0  0  0  0
 40 42  1  0  0  0  0
 40 86  1  0  0  0  0
 40 87  1  0  0  0  0
 42 43  2  0  0  0  0
 42 46  1  0  0  0  0
 43 44  1  0  0  0  0
 43 88  1  0  0  0  0
 44 45  1  0  0  0  0
 45 46  2  0  0  0  0
 45 47  1  0  0  0  0
 47 48  1  0  0  0  0
 47 49  1  0  0  0  0
 47 89  1  0  0  0  0
 48 90  1  0  0  0  0
 48 91  1  0  0  0  0
 48 92  1  0  0  0  0
 49 93  1  0  0  0  0
 49 94  1  0  0  0  0
 49 95  1  0  0  0  0
 50 96  1  0  0  0  0
 50 97  1  0  0  0  0
 50 98  1  0  0  0  0
M  END
