4ez3_ligand
 OpenBabel08222323353D

 30 31  0  0  0  0  0  0  0  0999 V2000
   -1.6760   -4.0230   29.0480 O   0  0  0  0  0  0  0  0  0  0  0  0
   -0.8360   -4.2980   28.1940 C   0  0  0  0  0  0  0  0  0  0  0  0
    0.0160   -3.3490   27.8250 N   0  0  0  0  0  0  0  0  0  0  0  0
    0.9850   -3.5700   26.8740 C   0  0  0  0  0  0  0  0  0  0  0  0
    1.8320   -2.5690   26.5410 O   0  0  0  0  0  0  0  0  0  0  0  0
    1.0990   -4.8100   26.2480 C   0  0  0  0  0  0  0  0  0  0  0  0
    0.2180   -5.8340   26.5870 C   0  0  0  0  0  0  0  0  0  0  0  0
   -0.7710   -5.5850   27.5760 C   0  0  0  0  0  0  0  0  0  0  0  0
   -1.6690   -6.6760   27.8850 N   0  0  0  0  0  0  0  0  0  0  0  0
   -2.5790   -6.6350   28.7020 N   0  0  0  0  0  0  0  0  0  0  0  0
   -3.6410   -7.6400   28.5730 C   0  0  0  0  0  0  0  0  0  0  0  0
   -3.5570   -8.5790   27.5180 C   0  0  0  0  0  0  0  0  0  0  0  0
   -4.5120   -9.5160   27.3980 C   0  0  0  0  0  0  0  0  0  0  0  0
   -5.5920   -9.5320   28.3280 C   0  0  0  0  0  0  0  0  0  0  0  0
   -6.8650  -10.7480   28.1750 S   0  0  0  0  0  0  0  0  0  0  0  0
   -6.4720  -11.8710   27.3680 O   0  0  0  0  0  0  0  0  0  0  0  0
   -7.3320  -11.2200   29.6360 N   0  0  0  0  0  0  0  0  0  0  0  0
   -7.9450  -10.1570   27.3370 O   0  0  0  0  0  0  0  0  0  0  0  0
   -5.6820   -8.5970   29.3650 C   0  0  0  0  0  0  0  0  0  0  0  0
   -4.7140   -7.6510   29.4990 C   0  0  0  0  0  0  0  0  0  0  0  0
   -2.2162   -4.7861   29.2166 H   0  0  0  0  0  0  0  0  0  0  0  0
   -0.0486   -2.4466   28.2511 H   0  0  0  0  0  0  0  0  0  0  0  0
    1.8716   -4.9770   25.4990 H   0  0  0  0  0  0  0  0  0  0  0  0
    0.2860   -6.8072   26.1031 H   0  0  0  0  0  0  0  0  0  0  0  0
   -2.7323   -8.5427   26.8154 H   0  0  0  0  0  0  0  0  0  0  0  0
   -4.4619  -10.2514   26.6032 H   0  0  0  0  0  0  0  0  0  0  0  0
   -8.0501  -11.9091   29.7330 H   0  0  0  0  0  0  0  0  0  0  0  0
   -6.9049  -10.8250   30.4494 H   0  0  0  0  0  0  0  0  0  0  0  0
   -6.5166   -8.6263   30.0561 H   0  0  0  0  0  0  0  0  0  0  0  0
   -4.7622   -6.9201   30.2980 H   0  0  0  0  0  0  0  0  0  0  0  0
  1  2  1  0  0  0  0
  1 21  1  0  0  0  0
  2  3  1  0  0  0  0
  2  8  2  0  0  0  0
  3  4  1  0  0  0  0
  3 22  1  0  0  0  0
  4  5  2  0  0  0  0
  4  6  1  0  0  0  0
  6  7  2  0  0  0  0
  6 23  1  0  0  0  0
  7  8  1  0  0  0  0
  7 24  1  0  0  0  0
  8  9  1  0  0  0  0
  9 10  2  0  0  0  0
 10 11  1  0  0  0  0
 11 12  2  0  0  0  0
 11 20  1  0  0  0  0
 12 13  1  0  0  0  0
 12 25  1  0  0  0  0
 13 14  2  0  0  0  0
 13 26  1  0  0  0  0
 14 15  1  0  0  0  0
 14 19  1  0  0  0  0
 15 16  2  0  0  0  0
 15 17  1  0  0  0  0
 15 18  2  0  0  0  0
 17 27  1  0  0  0  0
 17 28  1  0  0  0  0
 19 20  2  0  0  0  0
 19 29  1  0  0  0  0
 20 30  1  0  0  0  0
M  END
