4ez5_ligand
 OpenBabel08222323353D

 64 69  0  0  0  0  0  0  0  0999 V2000
   41.1560   20.3810   17.2800 C   0  0  0  0  0  0  0  0  0  0  0  0
   41.6200   21.8690   15.4620 C   0  0  0  0  0  0  0  0  0  0  0  0
   39.3490   20.9040   15.7450 C   0  0  0  0  0  0  0  0  0  0  0  0
   33.3950   26.1640    9.6520 O   0  0  0  0  0  0  0  0  0  0  0  0
   36.1570   22.6180   10.0100 C   0  0  0  0  0  0  0  0  0  0  0  0
   34.9170   24.3260    9.6360 C   0  0  0  0  0  0  0  0  0  0  0  0
   35.8010   23.1340   11.2820 C   0  0  0  0  0  0  0  0  0  0  0  0
   34.1080   25.4330    8.9760 C   0  0  0  0  0  0  0  0  0  0  0  0
   34.1850   25.6330    7.4990 C   0  0  0  0  0  0  0  0  0  0  0  0
   33.1390   26.2870    6.8280 C   0  0  0  0  0  0  0  0  0  0  0  0
   33.2480   26.4550    5.4430 C   0  0  0  0  0  0  0  0  0  0  0  0
   35.3040   25.3900    5.3320 C   0  0  0  0  0  0  0  0  0  0  0  0
   35.2800   25.2010    6.7190 C   0  0  0  0  0  0  0  0  0  0  0  0
   36.4310   24.9540    4.4830 C   0  0  0  0  0  0  0  0  0  0  0  0
   36.8560   25.8340    3.4560 C   0  0  0  0  0  0  0  0  0  0  0  0
   38.5250   24.4280    2.7500 C   0  0  0  0  0  0  0  0  0  0  0  0
   38.2080   23.4610    3.7200 C   0  0  0  0  0  0  0  0  0  0  0  0
   38.9340   22.2570    3.8020 C   0  0  0  0  0  0  0  0  0  0  0  0
   38.6020   21.3030    4.7860 C   0  0  0  0  0  0  0  0  0  0  0  0
   37.5490   21.5310    5.6910 C   0  0  0  0  0  0  0  0  0  0  0  0
   36.8240   22.7320    5.5900 C   0  0  0  0  0  0  0  0  0  0  0  0
   37.1380   23.7220    4.6130 C   0  0  0  0  0  0  0  0  0  0  0  0
   40.5880   21.3840   16.3830 N   0  3  0  0  0  0  0  0  0  0  0  0
   38.2970   22.0300   15.6330 C   0  0  0  0  0  0  0  0  0  0  0  0
   37.0100   21.5330   14.9500 C   0  0  0  0  0  0  0  0  0  0  0  0
   37.3580   21.0040   13.6330 N   0  0  0  0  0  0  0  0  0  0  0  0
   38.2170   19.8270   13.7520 C   0  0  0  0  0  0  0  0  0  0  0  0
   39.5660   20.2000   14.3860 C   0  0  0  0  0  0  0  0  0  0  0  0
   36.9640   21.5460   12.4530 C   0  0  0  0  0  0  0  0  0  0  0  0
   37.3860   20.9460   11.2420 C   0  0  0  0  0  0  0  0  0  0  0  0
   36.9810   21.4780   10.0020 C   0  0  0  0  0  0  0  0  0  0  0  0
   35.6040   23.3670    8.9930 N   0  0  0  0  0  0  0  0  0  0  0  0
   35.0050   24.2260   10.9870 N   0  0  0  0  0  0  0  0  0  0  0  0
   36.1690   22.6470   12.5000 N   0  0  0  0  0  0  0  0  0  0  0  0
   34.3000   26.0250    4.7140 N   0  0  0  0  0  0  0  0  0  0  0  0
   37.8730   25.5940    2.6090 N   0  0  0  0  0  0  0  0  0  0  0  0
   42.0764   20.7755   17.7352 H   0  0  0  0  0  0  0  0  0  0  0  0
   41.3903   19.4699   16.7100 H   0  0  0  0  0  0  0  0  0  0  0  0
   40.4292   20.1423   18.0704 H   0  0  0  0  0  0  0  0  0  0  0  0
   41.1860   22.6236   14.7896 H   0  0  0  0  0  0  0  0  0  0  0  0
   42.0062   21.0275   14.8681 H   0  0  0  0  0  0  0  0  0  0  0  0
   42.4422   22.3199   16.0371 H   0  0  0  0  0  0  0  0  0  0  0  0
   38.9301   20.1443   16.4212 H   0  0  0  0  0  0  0  0  0  0  0  0
   32.2721   26.6512    7.3674 H   0  0  0  0  0  0  0  0  0  0  0  0
   32.4406   26.9599    4.9251 H   0  0  0  0  0  0  0  0  0  0  0  0
   36.1183   24.7136    7.2036 H   0  0  0  0  0  0  0  0  0  0  0  0
   36.3213   26.7704    3.3450 H   0  0  0  0  0  0  0  0  0  0  0  0
   39.3464   24.2198    2.0740 H   0  0  0  0  0  0  0  0  0  0  0  0
   39.7461   22.0641    3.1104 H   0  0  0  0  0  0  0  0  0  0  0  0
   39.1668   20.3797    4.8461 H   0  0  0  0  0  0  0  0  0  0  0  0
   37.3019   20.7970    6.4495 H   0  0  0  0  0  0  0  0  0  0  0  0
   36.0027   22.9102    6.2747 H   0  0  0  0  0  0  0  0  0  0  0  0
   40.3209   22.1726   16.9512 H   0  0  0  0  0  0  0  0  0  0  0  0
   38.7191   22.8562   15.0421 H   0  0  0  0  0  0  0  0  0  0  0  0
   38.0498   22.3901   16.6426 H   0  0  0  0  0  0  0  0  0  0  0  0
   36.3026   22.3680   14.8392 H   0  0  0  0  0  0  0  0  0  0  0  0
   36.5495   20.7405   15.5582 H   0  0  0  0  0  0  0  0  0  0  0  0
   38.3928   19.4057   12.7512 H   0  0  0  0  0  0  0  0  0  0  0  0
   37.7168   19.0774   14.3827 H   0  0  0  0  0  0  0  0  0  0  0  0
   40.1577   19.2859   14.5422 H   0  0  0  0  0  0  0  0  0  0  0  0
   40.1088   20.8771   13.7101 H   0  0  0  0  0  0  0  0  0  0  0  0
   38.0253   20.0710   11.2692 H   0  0  0  0  0  0  0  0  0  0  0  0
   37.2949   21.0225    9.0698 H   0  0  0  0  0  0  0  0  0  0  0  0
   35.6961   23.2245    7.9771 H   0  0  0  0  0  0  0  0  0  0  0  0
  1 37  1  0  0  0  0
  1 38  1  0  0  0  0
  1 39  1  0  0  0  0
  2 40  1  0  0  0  0
  2 41  1  0  0  0  0
  2 42  1  0  0  0  0
  3 23  1  0  0  0  0
  3 43  1  0  0  0  0
  5 31  1  0  0  0  0
  5 32  1  0  0  0  0
  6  8  1  0  0  0  0
  6 32  1  0  0  0  0
  7  5  2  0  0  0  0
  7 33  1  0  0  0  0
  8  4  2  0  0  0  0
  8  9  1  0  0  0  0
  9 10  2  0  0  0  0
  9 13  1  0  0  0  0
 10 11  1  0  0  0  0
 10 44  1  0  0  0  0
 11 35  2  0  0  0  0
 11 45  1  0  0  0  0
 12 14  1  0  0  0  0
 12 35  1  0  0  0  0
 13 12  2  0  0  0  0
 13 46  1  0  0  0  0
 14 15  2  0  0  0  0
 14 22  1  0  0  0  0
 15 36  1  0  0  0  0
 15 47  1  0  0  0  0
 16 48  1  0  0  0  0
 17 16  1  0  0  0  0
 17 18  2  0  0  0  0
 18 19  1  0  0  0  0
 18 49  1  0  0  0  0
 19 50  1  0  0  0  0
 20 19  2  0  0  0  0
 20 51  1  0  0  0  0
 21 20  1  0  0  0  0
 21 52  1  0  0  0  0
 22 17  1  0  0  0  0
 22 21  2  0  0  0  0
 23  1  1  0  0  0  0
 23  2  1  0  0  0  0
 23 53  1  0  0  0  0
 24  3  1  0  0  0  0
 24 54  1  0  0  0  0
 24 55  1  0  0  0  0
 25 24  1  0  0  0  0
 25 56  1  0  0  0  0
 25 57  1  0  0  0  0
 26 25  1  0  0  0  0
 26 27  1  0  0  0  0
 27 28  1  0  0  0  0
 27 58  1  0  0  0  0
 27 59  1  0  0  0  0
 28  3  1  0  0  0  0
 28 60  1  0  0  0  0
 28 61  1  0  0  0  0
 29 26  1  0  0  0  0
 29 30  1  0  0  0  0
 29 34  2  0  0  0  0
 30 31  2  0  0  0  0
 30 62  1  0  0  0  0
 31 63  1  0  0  0  0
 32 64  1  0  0  0  0
 33  6  2  0  0  0  0
 34  7  1  0  0  0  0
 36 16  2  0  0  0  0
M  CHG  1  23   1
M  END
