4ezo_ligand
 OpenBabel08222323353D

147151  0  0  1  0  0  0  0  0999 V2000
   -9.2080    5.1030   -1.9470 N   0  3  0  0  0  0  0  0  0  0  0  0
   -9.4300    6.2980   -2.7490 C   0  0  2  0  0  0  0  0  0  0  0  0
  -10.6580    6.1900   -3.6750 C   0  0  0  0  0  0  0  0  0  0  0  0
  -10.7810    5.2040   -4.4120 O   0  0  0  0  0  0  0  0  0  0  0  0
   -8.1320    6.4160   -3.5800 C   0  0  0  0  0  0  0  0  0  0  0  0
   -7.4940    5.0710   -3.4940 C   0  0  0  0  0  0  0  0  0  0  0  0
   -7.8410    4.5900   -2.1160 C   0  0  0  0  0  0  0  0  0  0  0  0
  -11.5320    7.2140   -3.6500 N   0  0  0  0  0  0  0  0  0  0  0  0
  -12.5460    7.3850   -4.6970 C   0  0  2  0  0  0  0  0  0  0  0  0
  -11.9140    7.5780   -6.0850 C   0  0  0  0  0  0  0  0  0  0  0  0
  -10.7650    7.9910   -6.2430 O   0  0  0  0  0  0  0  0  0  0  0  0
  -13.2850    8.6710   -4.2840 C   0  0  0  0  0  0  0  0  0  0  0  0
  -12.8180    9.0410   -2.9160 C   0  0  0  0  0  0  0  0  0  0  0  0
  -11.4980    8.3470   -2.6960 C   0  0  0  0  0  0  0  0  0  0  0  0
  -12.6930    7.3340   -7.1070 N   0  0  0  0  0  0  0  0  0  0  0  0
  -12.1550    7.3640   -8.4500 C   0  0  2  0  0  0  0  0  0  0  0  0
  -12.6150    8.5330   -9.2800 C   0  0  0  0  0  0  0  0  0  0  0  0
  -13.7300    9.0260   -9.1520 O   0  0  0  0  0  0  0  0  0  0  0  0
  -12.6500    6.1470   -9.1760 C   0  0  0  0  0  0  0  0  0  0  0  0
  -12.4130    4.8710   -8.4770 C   0  0  0  0  0  0  0  0  0  0  0  0
  -11.1640    4.5840   -7.9290 C   0  0  0  0  0  0  0  0  0  0  0  0
  -13.4350    3.9410   -8.3590 C   0  0  0  0  0  0  0  0  0  0  0  0
  -10.9260    3.3820   -7.2730 C   0  0  0  0  0  0  0  0  0  0  0  0
  -13.2300    2.7390   -7.7130 C   0  0  0  0  0  0  0  0  0  0  0  0
  -11.9770    2.4590   -7.1730 C   0  0  0  0  0  0  0  0  0  0  0  0
  -11.7920    1.2520   -6.5230 O   0  0  0  0  0  0  0  0  0  0  0  0
  -11.7800    8.8900  -10.2350 N   0  0  0  0  0  0  0  0  0  0  0  0
  -12.0230   10.0720  -11.0440 C   0  0  2  0  0  0  0  0  0  0  0  0
  -12.3700    9.6830  -12.4800 C   0  0  0  0  0  0  0  0  0  0  0  0
  -11.6960    8.8340  -13.0490 O   0  0  0  0  0  0  0  0  0  0  0  0
  -10.7510   10.8930  -11.0240 C   0  0  0  0  0  0  0  0  0  0  0  0
  -10.5160   11.5850   -9.7020 C   0  0  0  0  0  0  0  0  0  0  0  0
   -9.1710   12.3080   -9.8040 C   0  0  0  0  0  0  0  0  0  0  0  0
  -11.6430   12.5970   -9.5450 C   0  0  0  0  0  0  0  0  0  0  0  0
  -13.3580   10.3560  -13.0900 N   0  0  0  0  0  0  0  0  0  0  0  0
  -13.6620   10.1470  -14.5070 C   0  0  2  0  0  0  0  0  0  0  0  0
  -12.5650   10.6810  -15.4710 C   0  0  0  0  0  0  0  0  0  0  0  0
  -11.7920   11.5650  -15.1120 O   0  0  0  0  0  0  0  0  0  0  0  0
  -14.9360   10.9710  -14.6880 C   0  0  0  0  0  0  0  0  0  0  0  0
  -14.7530   12.1160  -13.7520 C   0  0  0  0  0  0  0  0  0  0  0  0
  -14.1730   11.4660  -12.5330 C   0  0  0  0  0  0  0  0  0  0  0  0
  -12.5010   10.1250  -16.6760 N   0  0  0  0  0  0  0  0  0  0  0  0
  -11.5630   10.6320  -17.6660 C   0  0  2  0  0  0  0  0  0  0  0  0
  -12.2190   11.8200  -18.3610 C   0  0  0  0  0  0  0  0  0  0  0  0
  -13.4140   12.0480  -18.1770 O   0  0  0  0  0  0  0  0  0  0  0  0
  -11.1430    9.5490  -18.6620 C   0  0  0  0  0  0  0  0  0  0  0  0
  -12.3130    8.9840  -19.4430 C   0  0  0  0  0  0  0  0  0  0  0  0
  -11.8520    8.4630  -20.7810 C   0  0  0  0  0  0  0  0  0  0  0  0
  -13.0120    7.9140  -21.4730 N   0  0  0  0  0  0  0  0  0  0  0  0
  -13.0310    7.5010  -22.7310 C   0  0  0  0  0  3  0  0  0  0  0  0
  -11.9410    7.5520  -23.4780 N   0  0  0  0  0  0  0  0  0  0  0  0
  -14.1540    7.0240  -23.2350 N   0  0  0  0  0  0  0  0  0  0  0  0
  -11.4260   12.6010  -19.1130 N   0  0  0  0  0  0  0  0  0  0  0  0
  -11.9700   13.6470  -19.9920 C   0  0  2  0  0  0  0  0  0  0  0  0
  -12.9120   13.0430  -21.0430 C   0  0  0  0  0  0  0  0  0  0  0  0
  -12.6110   11.9680  -21.5760 O   0  0  0  0  0  0  0  0  0  0  0  0
  -10.7040   14.2500  -20.6330 C   0  0  0  0  0  0  0  0  0  0  0  0
   -9.6660   14.0970  -19.5430 C   0  0  0  0  0  0  0  0  0  0  0  0
   -9.9790   12.7680  -18.8950 C   0  0  0  0  0  0  0  0  0  0  0  0
  -14.0490   13.7050  -21.3070 N   0  0  0  0  0  0  0  0  0  0  0  0
  -15.0630   13.1770  -22.2380 C   0  0  2  0  0  0  0  0  0  0  0  0
  -14.5120   13.0130  -23.6560 C   0  0  0  0  0  0  0  0  0  0  0  0
  -13.9880   13.9990  -24.2398 O   0  5  0  0  0  0  0  0  0  0  0  0
  -16.3000   14.0810  -22.2840 C   0  0  0  0  0  0  0  0  0  0  0  0
  -17.4110   13.7040  -21.3240 C   0  0  0  0  0  0  0  0  0  0  0  0
  -18.2450   14.9340  -21.0250 C   0  0  0  0  0  0  0  0  0  0  0  0
  -19.2670   14.7270  -19.9970 N   0  0  0  0  0  0  0  0  0  0  0  0
  -19.1460   15.0710  -18.7130 C   0  0  0  0  0  3  0  0  0  0  0  0
  -18.0280   15.6270  -18.2720 N   0  0  0  0  0  0  0  0  0  0  0  0
  -20.1450   14.8540  -17.8620 N   0  0  0  0  0  0  0  0  0  0  0  0
  -14.5819   11.8972  -24.2371 O   0  0  0  0  0  0  0  0  0  0  0  0
   -9.8628    4.3912   -2.2309 H   0  0  0  0  0  0  0  0  0  0  0  0
   -9.3561    5.3277   -0.9756 H   0  0  0  0  0  0  0  0  0  0  0  0
   -9.5552    7.1746   -2.0964 H   0  0  0  0  0  0  0  0  0  0  0  0
   -7.4702    7.1854   -3.1559 H   0  0  0  0  0  0  0  0  0  0  0  0
   -8.3639    6.6675   -4.6254 H   0  0  0  0  0  0  0  0  0  0  0  0
   -6.4037    5.1471   -3.6181 H   0  0  0  0  0  0  0  0  0  0  0  0
   -7.9038    4.3946   -4.2585 H   0  0  0  0  0  0  0  0  0  0  0  0
   -7.8165    3.4918   -2.0583 H   0  0  0  0  0  0  0  0  0  0  0  0
   -7.1599    5.0121   -1.3624 H   0  0  0  0  0  0  0  0  0  0  0  0
  -13.2296    6.5235   -4.7204 H   0  0  0  0  0  0  0  0  0  0  0  0
  -14.3705    8.4931   -4.2743 H   0  0  0  0  0  0  0  0  0  0  0  0
  -13.0525    9.4807   -4.9913 H   0  0  0  0  0  0  0  0  0  0  0  0
  -13.5492    8.7081   -2.1647 H   0  0  0  0  0  0  0  0  0  0  0  0
  -12.6880   10.1309   -2.8435 H   0  0  0  0  0  0  0  0  0  0  0  0
  -10.6584    9.0219   -2.9187 H   0  0  0  0  0  0  0  0  0  0  0  0
  -11.4131    7.9853   -1.6607 H   0  0  0  0  0  0  0  0  0  0  0  0
  -13.6602    7.1268   -6.9603 H   0  0  0  0  0  0  0  0  0  0  0  0
  -11.0565    7.3647   -8.3938 H   0  0  0  0  0  0  0  0  0  0  0  0
  -12.1445    6.1015  -10.1519 H   0  0  0  0  0  0  0  0  0  0  0  0
  -13.7337    6.2571   -9.3291 H   0  0  0  0  0  0  0  0  0  0  0  0
  -10.3644    5.3108   -8.0159 H   0  0  0  0  0  0  0  0  0  0  0  0
  -14.4091    4.1615   -8.7804 H   0  0  0  0  0  0  0  0  0  0  0  0
   -9.9524    3.1635   -6.8493 H   0  0  0  0  0  0  0  0  0  0  0  0
  -14.0363    2.0196   -7.6266 H   0  0  0  0  0  0  0  0  0  0  0  0
  -10.8973    1.1969   -6.2083 H   0  0  0  0  0  0  0  0  0  0  0  0
  -10.9643    8.3373  -10.4059 H   0  0  0  0  0  0  0  0  0  0  0  0
  -12.8525   10.6535  -10.6152 H   0  0  0  0  0  0  0  0  0  0  0  0
  -10.8143   11.6568  -11.8130 H   0  0  0  0  0  0  0  0  0  0  0  0
   -9.9001   10.2261  -11.2266 H   0  0  0  0  0  0  0  0  0  0  0  0
  -10.5114   10.8692   -8.8667 H   0  0  0  0  0  0  0  0  0  0  0  0
   -8.9611   12.8272   -8.8572 H   0  0  0  0  0  0  0  0  0  0  0  0
   -9.2099   13.0409  -10.6233 H   0  0  0  0  0  0  0  0  0  0  0  0
   -8.3752   11.5755  -10.0046 H   0  0  0  0  0  0  0  0  0  0  0  0
  -12.6042   12.0670   -9.4727 H   0  0  0  0  0  0  0  0  0  0  0  0
  -11.6584   13.2669  -10.4173 H   0  0  0  0  0  0  0  0  0  0  0  0
  -11.4806   13.1880   -8.6316 H   0  0  0  0  0  0  0  0  0  0  0  0
  -13.8372    9.0806  -14.7123 H   0  0  0  0  0  0  0  0  0  0  0  0
  -15.8253   10.3824  -14.4184 H   0  0  0  0  0  0  0  0  0  0  0  0
  -15.0306   11.3240  -15.7255 H   0  0  0  0  0  0  0  0  0  0  0  0
  -15.7153   12.5973  -13.5233 H   0  0  0  0  0  0  0  0  0  0  0  0
  -14.0604   12.8614  -14.1699 H   0  0  0  0  0  0  0  0  0  0  0  0
  -13.5443   12.1727  -11.9715 H   0  0  0  0  0  0  0  0  0  0  0  0
  -14.9672   11.0805  -11.8769 H   0  0  0  0  0  0  0  0  0  0  0  0
  -13.0989    9.3563  -16.9031 H   0  0  0  0  0  0  0  0  0  0  0  0
  -10.6585   10.9825  -17.1474 H   0  0  0  0  0  0  0  0  0  0  0  0
  -10.6617    8.7296  -18.1081 H   0  0  0  0  0  0  0  0  0  0  0  0
  -10.4239    9.9839  -19.3717 H   0  0  0  0  0  0  0  0  0  0  0  0
  -13.0595    9.7763  -19.6007 H   0  0  0  0  0  0  0  0  0  0  0  0
  -12.7667    8.1613  -18.8709 H   0  0  0  0  0  0  0  0  0  0  0  0
  -11.0969    7.6764  -20.6356 H   0  0  0  0  0  0  0  0  0  0  0  0
  -11.4181    9.2831  -21.3719 H   0  0  0  0  0  0  0  0  0  0  0  0
  -13.8897    7.8414  -20.9389 H   0  0  0  0  0  0  0  0  0  0  0  0
  -11.9706    7.2273  -24.4550 H   0  0  0  0  0  0  0  0  0  0  0  0
  -11.0624    7.9165  -23.0828 H   0  0  0  0  0  0  0  0  0  0  0  0
  -15.0033    6.9840  -22.6537 H   0  0  0  0  0  0  0  0  0  0  0  0
  -14.1809    6.6918  -24.2096 H   0  0  0  0  0  0  0  0  0  0  0  0
  -12.5139   14.4068  -19.4116 H   0  0  0  0  0  0  0  0  0  0  0  0
  -10.8561   15.3091  -20.8885 H   0  0  0  0  0  0  0  0  0  0  0  0
  -10.4142   13.6929  -21.5361 H   0  0  0  0  0  0  0  0  0  0  0  0
   -9.7494   14.9140  -18.8112 H   0  0  0  0  0  0  0  0  0  0  0  0
   -8.6528   14.0901  -19.9711 H   0  0  0  0  0  0  0  0  0  0  0  0
   -9.4143   11.9555  -19.3755 H   0  0  0  0  0  0  0  0  0  0  0  0
   -9.7450   12.7916  -17.8204 H   0  0  0  0  0  0  0  0  0  0  0  0
  -14.2136   14.5835  -20.8585 H   0  0  0  0  0  0  0  0  0  0  0  0
  -15.3711   12.1864  -21.8723 H   0  0  0  0  0  0  0  0  0  0  0  0
  -16.7073   14.0488  -23.3053 H   0  0  0  0  0  0  0  0  0  0  0  0
  -15.9807   15.1070  -22.0488 H   0  0  0  0  0  0  0  0  0  0  0  0
  -16.9761   13.3177  -20.3904 H   0  0  0  0  0  0  0  0  0  0  0  0
  -18.0458   12.9303  -21.7805 H   0  0  0  0  0  0  0  0  0  0  0  0
  -18.7466   15.2455  -21.9531 H   0  0  0  0  0  0  0  0  0  0  0  0
  -17.5710   15.7345  -20.6860 H   0  0  0  0  0  0  0  0  0  0  0  0
  -20.1487   14.2808  -20.2876 H   0  0  0  0  0  0  0  0  0  0  0  0
  -17.9403   15.8904  -17.2801 H   0  0  0  0  0  0  0  0  0  0  0  0
  -17.2461   15.7961  -18.9209 H   0  0  0  0  0  0  0  0  0  0  0  0
  -21.0193   14.4222  -18.1936 H   0  0  0  0  0  0  0  0  0  0  0  0
  -20.0442   15.1178  -16.8715 H   0  0  0  0  0  0  0  0  0  0  0  0
  1  2  1  0  0  0  0
  1  7  1  0  0  0  0
  1 72  1  0  0  0  0
  1 73  1  0  0  0  0
  2  3  1  0  0  0  0
  2  5  1  0  0  0  0
  2 74  1  1  0  0  0
  3  4  2  0  0  0  0
  3  8  1  0  0  0  0
  5  6  1  0  0  0  0
  5 75  1  0  0  0  0
  5 76  1  0  0  0  0
  6  7  1  0  0  0  0
  6 77  1  0  0  0  0
  6 78  1  0  0  0  0
  7 79  1  0  0  0  0
  7 80  1  0  0  0  0
  8  9  1  0  0  0  0
  8 14  1  0  0  0  0
  9 10  1  0  0  0  0
  9 12  1  0  0  0  0
  9 81  1  6  0  0  0
 10 11  2  0  0  0  0
 10 15  1  0  0  0  0
 12 13  1  0  0  0  0
 12 82  1  0  0  0  0
 12 83  1  0  0  0  0
 13 14  1  0  0  0  0
 13 84  1  0  0  0  0
 13 85  1  0  0  0  0
 14 86  1  0  0  0  0
 14 87  1  0  0  0  0
 15 16  1  0  0  0  0
 15 88  1  0  0  0  0
 16 17  1  0  0  0  0
 16 19  1  0  0  0  0
 16 89  1  1  0  0  0
 17 18  2  0  0  0  0
 17 27  1  0  0  0  0
 19 20  1  0  0  0  0
 19 90  1  0  0  0  0
 19 91  1  0  0  0  0
 20 21  2  0  0  0  0
 20 22  1  0  0  0  0
 21 23  1  0  0  0  0
 21 92  1  0  0  0  0
 22 24  2  0  0  0  0
 22 93  1  0  0  0  0
 23 25  2  0  0  0  0
 23 94  1  0  0  0  0
 24 25  1  0  0  0  0
 24 95  1  0  0  0  0
 25 26  1  0  0  0  0
 26 96  1  0  0  0  0
 27 28  1  0  0  0  0
 27 97  1  0  0  0  0
 28 29  1  0  0  0  0
 28 31  1  0  0  0  0
 28 98  1  1  0  0  0
 29 30  2  0  0  0  0
 29 35  1  0  0  0  0
 31 32  1  0  0  0  0
 31 99  1  0  0  0  0
 31100  1  0  0  0  0
 32 33  1  0  0  0  0
 32 34  1  0  0  0  0
 32101  1  0  0  0  0
 33102  1  0  0  0  0
 33103  1  0  0  0  0
 33104  1  0  0  0  0
 34105  1  0  0  0  0
 34106  1  0  0  0  0
 34107  1  0  0  0  0
 35 36  1  0  0  0  0
 35 41  1  0  0  0  0
 36 37  1  0  0  0  0
 36 39  1  0  0  0  0
 36108  1  6  0  0  0
 37 38  2  0  0  0  0
 37 42  1  0  0  0  0
 39 40  1  0  0  0  0
 39109  1  0  0  0  0
 39110  1  0  0  0  0
 40 41  1  0  0  0  0
 40111  1  0  0  0  0
 40112  1  0  0  0  0
 41113  1  0  0  0  0
 41114  1  0  0  0  0
 42 43  1  0  0  0  0
 42115  1  0  0  0  0
 43 44  1  0  0  0  0
 43 46  1  0  0  0  0
 43116  1  1  0  0  0
 44 45  2  0  0  0  0
 44 53  1  0  0  0  0
 46 47  1  0  0  0  0
 46117  1  0  0  0  0
 46118  1  0  0  0  0
 47 48  1  0  0  0  0
 47119  1  0  0  0  0
 47120  1  0  0  0  0
 48 49  1  0  0  0  0
 48121  1  0  0  0  0
 48122  1  0  0  0  0
 49 50  1  0  0  0  0
 49123  1  0  0  0  0
 50 51  1  0  0  0  0
 50 52  1  0  0  0  0
 51124  1  0  0  0  0
 51125  1  0  0  0  0
 52126  1  0  0  0  0
 52127  1  0  0  0  0
 53 54  1  0  0  0  0
 53 59  1  0  0  0  0
 54 55  1  0  0  0  0
 54 57  1  0  0  0  0
 54128  1  1  0  0  0
 55 56  2  0  0  0  0
 55 60  1  0  0  0  0
 57 58  1  0  0  0  0
 57129  1  0  0  0  0
 57130  1  0  0  0  0
 58 59  1  0  0  0  0
 58131  1  0  0  0  0
 58132  1  0  0  0  0
 59133  1  0  0  0  0
 59134  1  0  0  0  0
 60 61  1  0  0  0  0
 60135  1  0  0  0  0
 61 62  1  0  0  0  0
 61 64  1  0  0  0  0
 61136  1  1  0  0  0
 62 63  1  0  0  0  0
 62 71  2  0  0  0  0
 64 65  1  0  0  0  0
 64137  1  0  0  0  0
 64138  1  0  0  0  0
 65 66  1  0  0  0  0
 65139  1  0  0  0  0
 65140  1  0  0  0  0
 66 67  1  0  0  0  0
 66141  1  0  0  0  0
 66142  1  0  0  0  0
 67 68  1  0  0  0  0
 67143  1  0  0  0  0
 68 69  1  0  0  0  0
 68 70  1  0  0  0  0
 69144  1  0  0  0  0
 69145  1  0  0  0  0
 70146  1  0  0  0  0
 70147  1  0  0  0  0
M  CHG  2   1   1  63  -1
M  END
