4ezy_ligand
 OpenBabel08222323353D

 98 97  0  0  1  0  0  0  0  0999 V2000
   58.3840   83.4980   23.7720 N   0  3  0  0  0  0  0  0  0  0  0  0
   59.2150   84.3490   24.6730 C   0  0  2  0  0  0  0  0  0  0  0  0
   58.5080   85.4410   25.4570 C   0  0  0  0  0  0  0  0  0  0  0  0
   59.1650   86.3460   25.9250 O   0  0  0  0  0  0  0  0  0  0  0  0
   60.3210   85.0390   23.8730 C   0  0  0  0  0  0  0  0  0  0  0  0
   61.4250   84.1210   23.5270 C   0  0  0  0  0  0  0  0  0  0  0  0
   61.2040   82.9430   23.2130 O   0  0  0  0  0  0  0  0  0  0  0  0
   62.6300   84.6230   23.5970 N   0  0  0  0  0  0  0  0  0  0  0  0
   57.2060   85.3780   25.6580 N   0  0  0  0  0  0  0  0  0  0  0  0
   56.5720   86.4820   26.4020 C   0  0  2  0  0  0  0  0  0  0  0  0
   56.7410   86.3000   27.9040 C   0  0  0  0  0  0  0  0  0  0  0  0
   57.0950   85.1910   28.4140 O   0  0  0  0  0  0  0  0  0  0  0  0
   55.0550   86.5570   26.0420 C   0  0  0  0  0  0  0  0  0  0  0  0
   54.7850   86.7060   24.5450 C   0  0  0  0  0  0  0  0  0  0  0  0
   53.4270   86.0940   24.1800 C   0  0  0  0  0  0  0  0  0  0  0  0
   53.6510   84.6430   24.0920 N   0  0  0  0  0  0  0  0  0  0  0  0
   52.7640   83.6540   24.2720 C   0  0  0  0  0  3  0  0  0  0  0  0
   53.2240   82.3940   24.1590 N   0  0  0  0  0  0  0  0  0  0  0  0
   51.4640   83.8910   24.5630 N   0  0  0  0  0  0  0  0  0  0  0  0
   56.4700   87.3590   28.6510 N   0  0  0  0  0  0  0  0  0  0  0  0
   56.3880   87.2580   30.1000 C   0  0  2  0  0  0  0  0  0  0  0  0
   55.0210   87.5590   30.5760 C   0  0  0  0  0  0  0  0  0  0  0  0
   54.3250   88.3890   30.0060 O   0  0  0  0  0  0  0  0  0  0  0  0
   57.3310   88.2750   30.6980 C   0  0  0  0  0  0  0  0  0  0  0  0
   58.7040   87.9630   30.2080 C   0  0  0  0  0  0  0  0  0  0  0  0
   58.9330   88.7260   28.9180 C   0  0  0  0  0  0  0  0  0  0  0  0
   59.5860   88.4940   31.3100 C   0  0  0  0  0  0  0  0  0  0  0  0
   54.6000   86.8950   31.6250 N   0  0  0  0  0  0  0  0  0  0  0  0
   53.3890   87.2250   32.2200 C   0  0  2  0  0  0  0  0  0  0  0  0
   53.5740   87.8130   33.6230 C   0  0  0  0  0  0  0  0  0  0  0  0
   54.6540   87.6680   34.2740 O   0  0  0  0  0  0  0  0  0  0  0  0
   52.5160   85.9530   32.1790 C   0  0  2  0  0  0  0  0  0  0  0  0
   52.9960   84.8770   33.1430 C   0  0  0  0  0  0  0  0  0  0  0  0
   52.6080   85.3770   30.8070 C   0  0  0  0  0  0  0  0  0  0  0  0
   51.9320   83.8440   33.4210 C   0  0  0  0  0  0  0  0  0  0  0  0
   52.5360   88.4920   34.0950 N   0  0  0  0  0  0  0  0  0  0  0  0
   52.4850   88.9470   35.4620 C   0  0  2  0  0  0  0  0  0  0  0  0
   52.0370   87.8150   36.4080 C   0  0  0  0  0  0  0  0  0  0  0  0
   51.0550   87.0780   36.1250 O   0  5  0  0  0  0  0  0  0  0  0  0
   51.5000   90.1060   35.5360 C   0  0  0  0  0  0  0  0  0  0  0  0
   51.9370   91.3850   34.8470 C   0  0  0  0  0  0  0  0  0  0  0  0
   50.7020   92.0930   34.3340 C   0  0  0  0  0  0  0  0  0  0  0  0
   52.6690   92.2250   35.8870 C   0  0  0  0  0  0  0  0  0  0  0  0
   52.6644   87.6233   37.4838 O   0  0  0  0  0  0  0  0  0  0  0  0
   58.9719   82.8185   23.3152 H   0  0  0  0  0  0  0  0  0  0  0  0
   57.9391   84.0780   23.0780 H   0  0  0  0  0  0  0  0  0  0  0  0
   57.6797   83.0225   24.3142 H   0  0  0  0  0  0  0  0  0  0  0  0
   59.6785   83.6707   25.4044 H   0  0  0  0  0  0  0  0  0  0  0  0
   60.7259   85.8675   24.4727 H   0  0  0  0  0  0  0  0  0  0  0  0
   59.8883   85.4367   22.9432 H   0  0  0  0  0  0  0  0  0  0  0  0
   63.4222   84.0543   23.3755 H   0  0  0  0  0  0  0  0  0  0  0  0
   62.7596   85.5757   23.8720 H   0  0  0  0  0  0  0  0  0  0  0  0
   56.6670   84.6076   25.3174 H   0  0  0  0  0  0  0  0  0  0  0  0
   57.0539   87.4259   26.1074 H   0  0  0  0  0  0  0  0  0  0  0  0
   54.6172   87.4221   26.5615 H   0  0  0  0  0  0  0  0  0  0  0  0
   54.5690   85.6345   26.3923 H   0  0  0  0  0  0  0  0  0  0  0  0
   55.5771   86.1913   23.9814 H   0  0  0  0  0  0  0  0  0  0  0  0
   54.7829   87.7741   24.2822 H   0  0  0  0  0  0  0  0  0  0  0  0
   53.0773   86.4867   23.2138 H   0  0  0  0  0  0  0  0  0  0  0  0
   52.6835   86.3201   24.9585 H   0  0  0  0  0  0  0  0  0  0  0  0
   54.6114   84.3494   23.8630 H   0  0  0  0  0  0  0  0  0  0  0  0
   52.5830   81.5982   24.2882 H   0  0  0  0  0  0  0  0  0  0  0  0
   54.2170   82.2257   23.9433 H   0  0  0  0  0  0  0  0  0  0  0  0
   51.1233   84.8594   24.6470 H   0  0  0  0  0  0  0  0  0  0  0  0
   50.8151   83.1030   24.7005 H   0  0  0  0  0  0  0  0  0  0  0  0
   56.3189   88.2443   28.2112 H   0  0  0  0  0  0  0  0  0  0  0  0
   56.6739   86.2439   30.4161 H   0  0  0  0  0  0  0  0  0  0  0  0
   57.3019   88.2129   31.7958 H   0  0  0  0  0  0  0  0  0  0  0  0
   57.0409   89.2873   30.3802 H   0  0  0  0  0  0  0  0  0  0  0  0
   58.8545   86.8846   30.0519 H   0  0  0  0  0  0  0  0  0  0  0  0
   59.9425   88.5097   28.5383 H   0  0  0  0  0  0  0  0  0  0  0  0
   58.8362   89.8051   29.1081 H   0  0  0  0  0  0  0  0  0  0  0  0
   58.1865   88.4168   28.1716 H   0  0  0  0  0  0  0  0  0  0  0  0
   59.4016   87.9253   32.2334 H   0  0  0  0  0  0  0  0  0  0  0  0
   59.3584   89.5564   31.4821 H   0  0  0  0  0  0  0  0  0  0  0  0
   60.6413   88.3876   31.0185 H   0  0  0  0  0  0  0  0  0  0  0  0
   55.1520   86.1491   31.9977 H   0  0  0  0  0  0  0  0  0  0  0  0
   52.8982   87.9968   31.6090 H   0  0  0  0  0  0  0  0  0  0  0  0
   51.4752   86.2193   32.4153 H   0  0  0  0  0  0  0  0  0  0  0  0
   53.2829   85.3540   34.0918 H   0  0  0  0  0  0  0  0  0  0  0  0
   53.8715   84.3747   32.7057 H   0  0  0  0  0  0  0  0  0  0  0  0
   52.2695   86.1229   30.0728 H   0  0  0  0  0  0  0  0  0  0  0  0
   51.9711   84.4826   30.7413 H   0  0  0  0  0  0  0  0  0  0  0  0
   53.6513   85.1006   30.5945 H   0  0  0  0  0  0  0  0  0  0  0  0
   52.3255   83.0912   34.1199 H   0  0  0  0  0  0  0  0  0  0  0  0
   51.6417   83.3541   32.4799 H   0  0  0  0  0  0  0  0  0  0  0  0
   51.0531   84.3334   33.8660 H   0  0  0  0  0  0  0  0  0  0  0  0
   51.7687   88.6934   33.4861 H   0  0  0  0  0  0  0  0  0  0  0  0
   53.4835   89.2929   35.7675 H   0  0  0  0  0  0  0  0  0  0  0  0
   51.3276   90.3359   36.5978 H   0  0  0  0  0  0  0  0  0  0  0  0
   50.5571   89.7783   35.0740 H   0  0  0  0  0  0  0  0  0  0  0  0
   52.6102   91.1600   34.0067 H   0  0  0  0  0  0  0  0  0  0  0  0
   50.9966   93.0251   33.8297 H   0  0  0  0  0  0  0  0  0  0  0  0
   50.0365   92.3273   35.1779 H   0  0  0  0  0  0  0  0  0  0  0  0
   50.1752   91.4414   33.6214 H   0  0  0  0  0  0  0  0  0  0  0  0
   53.5589   91.6813   36.2371 H   0  0  0  0  0  0  0  0  0  0  0  0
   51.9999   92.4197   36.7381 H   0  0  0  0  0  0  0  0  0  0  0  0
   52.9766   93.1802   35.4364 H   0  0  0  0  0  0  0  0  0  0  0  0
  1  2  1  0  0  0  0
  1 45  1  0  0  0  0
  1 46  1  0  0  0  0
  1 47  1  0  0  0  0
  2  3  1  0  0  0  0
  2  5  1  0  0  0  0
  2 48  1  1  0  0  0
  3  4  2  0  0  0  0
  3  9  1  0  0  0  0
  5  6  1  0  0  0  0
  5 49  1  0  0  0  0
  5 50  1  0  0  0  0
  6  7  2  0  0  0  0
  6  8  1  0  0  0  0
  8 51  1  0  0  0  0
  8 52  1  0  0  0  0
  9 10  1  0  0  0  0
  9 53  1  0  0  0  0
 10 11  1  0  0  0  0
 10 13  1  0  0  0  0
 10 54  1  6  0  0  0
 11 12  2  0  0  0  0
 11 20  1  0  0  0  0
 13 14  1  0  0  0  0
 13 55  1  0  0  0  0
 13 56  1  0  0  0  0
 14 15  1  0  0  0  0
 14 57  1  0  0  0  0
 14 58  1  0  0  0  0
 15 16  1  0  0  0  0
 15 59  1  0  0  0  0
 15 60  1  0  0  0  0
 16 17  1  0  0  0  0
 16 61  1  0  0  0  0
 17 18  1  0  0  0  0
 17 19  1  0  0  0  0
 18 62  1  0  0  0  0
 18 63  1  0  0  0  0
 19 64  1  0  0  0  0
 19 65  1  0  0  0  0
 20 21  1  0  0  0  0
 20 66  1  0  0  0  0
 21 22  1  0  0  0  0
 21 24  1  0  0  0  0
 21 67  1  1  0  0  0
 22 23  2  0  0  0  0
 22 28  1  0  0  0  0
 24 25  1  0  0  0  0
 24 68  1  0  0  0  0
 24 69  1  0  0  0  0
 25 26  1  0  0  0  0
 25 27  1  0  0  0  0
 25 70  1  0  0  0  0
 26 71  1  0  0  0  0
 26 72  1  0  0  0  0
 26 73  1  0  0  0  0
 27 74  1  0  0  0  0
 27 75  1  0  0  0  0
 27 76  1  0  0  0  0
 28 29  1  0  0  0  0
 28 77  1  0  0  0  0
 29 30  1  0  0  0  0
 29 32  1  0  0  0  0
 29 78  1  6  0  0  0
 30 31  2  0  0  0  0
 30 36  1  0  0  0  0
 32 33  1  0  0  0  0
 32 34  1  0  0  0  0
 32 79  1  1  0  0  0
 33 35  1  0  0  0  0
 33 80  1  0  0  0  0
 33 81  1  0  0  0  0
 34 82  1  0  0  0  0
 34 83  1  0  0  0  0
 34 84  1  0  0  0  0
 35 85  1  0  0  0  0
 35 86  1  0  0  0  0
 35 87  1  0  0  0  0
 36 37  1  0  0  0  0
 36 88  1  0  0  0  0
 37 38  1  0  0  0  0
 37 40  1  0  0  0  0
 37 89  1  1  0  0  0
 38 39  1  0  0  0  0
 38 44  2  0  0  0  0
 40 41  1  0  0  0  0
 40 90  1  0  0  0  0
 40 91  1  0  0  0  0
 41 42  1  0  0  0  0
 41 43  1  0  0  0  0
 41 92  1  0  0  0  0
 42 93  1  0  0  0  0
 42 94  1  0  0  0  0
 42 95  1  0  0  0  0
 43 96  1  0  0  0  0
 43 97  1  0  0  0  0
 43 98  1  0  0  0  0
M  CHG  2   1   1  39  -1
M  END
