4f3i_ligand
 OpenBabel08222323353D

 47 50  0  0  1  0  0  0  0  0999 V2000
   30.0780   48.6070   -6.8350 Cl  0  0  0  0  0  0  0  0  0  0  0  0
   29.0620   49.3100   -5.5850 C   0  0  0  0  0  0  0  0  0  0  0  0
   29.2980   48.9730   -4.2560 C   0  0  0  0  0  0  0  0  0  0  0  0
   28.4950   49.5700   -3.2990 C   0  0  0  0  0  0  0  0  0  0  0  0
   28.0650   50.1620   -5.9820 C   0  0  0  0  0  0  0  0  0  0  0  0
   27.2380   50.7460   -4.9910 C   0  0  0  0  0  0  0  0  0  0  0  0
   27.4570   50.4280   -3.6580 C   0  0  0  0  0  0  0  0  0  0  0  0
   26.5330   50.9910   -2.6140 C   0  0  0  0  0  0  0  0  0  0  0  0
   27.0840   51.0760   -1.2410 C   0  0  0  0  0  0  0  0  0  0  0  0
   28.3570   51.6390   -0.9240 C   0  0  0  0  0  0  0  0  0  0  0  0
   29.2960   52.3370   -1.8280 C   0  0  0  0  0  0  0  0  0  0  0  0
   28.6690   51.5130    0.4560 C   0  0  0  0  0  0  0  0  0  0  0  0
   29.9260   51.8780    1.2240 C   0  0  0  0  0  0  0  0  0  0  0  0
   27.3520   50.7640    1.3280 S   0  0  0  0  0  0  0  0  0  0  0  0
   26.5040   50.5950   -0.1490 C   0  0  0  0  0  0  0  0  0  0  0  0
   25.1640   50.0220   -0.1550 N   0  0  0  0  0  0  0  0  0  0  0  0
   24.6130   48.9560    0.6150 C   0  0  0  0  0  0  0  0  0  0  0  0
   25.3670   48.1070    1.5930 C   0  0  0  0  0  0  0  0  0  0  0  0
   23.2960   48.8830    0.3010 N   0  0  0  0  0  0  0  0  0  0  0  0
   22.9960   49.8580   -0.6460 N   0  0  0  0  0  0  0  0  0  0  0  0
   24.1120   50.5510   -0.8840 C   0  0  0  0  0  0  0  0  0  0  0  0
   25.2590   51.0700   -2.8930 N   0  0  0  0  0  0  0  0  0  0  0  0
   24.3770   51.6530   -1.8660 C   0  0  1  0  0  0  0  0  0  0  0  0
   23.0760   52.0490   -2.4700 C   0  0  0  0  0  0  0  0  0  0  0  0
   23.3210   53.2020   -3.4120 C   0  0  0  0  0  0  0  0  0  0  0  0
   24.2910   53.9370   -3.4370 O   0  0  0  0  0  0  0  0  0  0  0  0
   22.2190   53.4940   -4.2050 O   0  0  0  0  0  0  0  0  0  0  0  0
   22.3100   54.6030   -5.1170 C   0  0  0  0  0  0  0  0  0  0  0  0
   30.0780   48.2722   -3.9812 H   0  0  0  0  0  0  0  0  0  0  0  0
   28.6772   49.3661   -2.2501 H   0  0  0  0  0  0  0  0  0  0  0  0
   27.9123   50.3844   -7.0319 H   0  0  0  0  0  0  0  0  0  0  0  0
   26.4457   51.4313   -5.2699 H   0  0  0  0  0  0  0  0  0  0  0  0
   28.8898   52.3361   -2.8503 H   0  0  0  0  0  0  0  0  0  0  0  0
   30.2668   51.8198   -1.8188 H   0  0  0  0  0  0  0  0  0  0  0  0
   29.4300   53.3744   -1.4876 H   0  0  0  0  0  0  0  0  0  0  0  0
   29.7910   51.6302    2.2872 H   0  0  0  0  0  0  0  0  0  0  0  0
   30.1190   52.9560    1.1205 H   0  0  0  0  0  0  0  0  0  0  0  0
   30.7791   51.3124    0.8211 H   0  0  0  0  0  0  0  0  0  0  0  0
   24.6857   47.3662    2.0369 H   0  0  0  0  0  0  0  0  0  0  0  0
   25.7834   48.7442    2.3870 H   0  0  0  0  0  0  0  0  0  0  0  0
   26.1852   47.5873    1.0730 H   0  0  0  0  0  0  0  0  0  0  0  0
   24.8556   52.5166   -1.3812 H   0  0  0  0  0  0  0  0  0  0  0  0
   22.3773   52.3577   -1.6785 H   0  0  0  0  0  0  0  0  0  0  0  0
   22.6499   51.2000   -3.0246 H   0  0  0  0  0  0  0  0  0  0  0  0
   21.3633   54.7031   -5.6682 H   0  0  0  0  0  0  0  0  0  0  0  0
   23.1311   54.4270   -5.8275 H   0  0  0  0  0  0  0  0  0  0  0  0
   22.5051   55.5268   -4.5527 H   0  0  0  0  0  0  0  0  0  0  0  0
  1  2  1  0  0  0  0
  2  3  2  0  0  0  0
  2  5  1  0  0  0  0
  3  4  1  0  0  0  0
  3 29  1  0  0  0  0
  4  7  2  0  0  0  0
  4 30  1  0  0  0  0
  5  6  2  0  0  0  0
  5 31  1  0  0  0  0
  6  7  1  0  0  0  0
  6 32  1  0  0  0  0
  7  8  1  0  0  0  0
  8  9  1  0  0  0  0
  8 22  2  0  0  0  0
  9 10  1  0  0  0  0
  9 15  2  0  0  0  0
 10 11  1  0  0  0  0
 10 12  2  0  0  0  0
 11 33  1  0  0  0  0
 11 34  1  0  0  0  0
 11 35  1  0  0  0  0
 12 13  1  0  0  0  0
 12 14  1  0  0  0  0
 13 36  1  0  0  0  0
 13 37  1  0  0  0  0
 13 38  1  0  0  0  0
 14 15  1  0  0  0  0
 15 16  1  0  0  0  0
 16 17  1  0  0  0  0
 16 21  1  0  0  0  0
 17 18  1  0  0  0  0
 17 19  2  0  0  0  0
 18 39  1  0  0  0  0
 18 40  1  0  0  0  0
 18 41  1  0  0  0  0
 19 20  1  0  0  0  0
 20 21  2  0  0  0  0
 21 23  1  0  0  0  0
 22 23  1  0  0  0  0
 23 24  1  0  0  0  0
 23 42  1  1  0  0  0
 24 25  1  0  0  0  0
 24 43  1  0  0  0  0
 24 44  1  0  0  0  0
 25 26  2  0  0  0  0
 25 27  1  0  0  0  0
 27 28  1  0  0  0  0
 28 45  1  0  0  0  0
 28 46  1  0  0  0  0
 28 47  1  0  0  0  0
M  END
