4f4p_ligand
 OpenBabel08222323353D

 50 53  0  0  0  0  0  0  0  0999 V2000
   -0.1400    2.6730   12.3210 C   0  0  0  0  0  0  0  0  0  0  0  0
    0.1300    1.5660   13.1000 C   0  0  0  0  0  0  0  0  0  0  0  0
   -1.1800    2.5980   11.3950 C   0  0  0  0  0  0  0  0  0  0  0  0
   -0.5810    0.3910   12.9650 C   0  0  0  0  0  0  0  0  0  0  0  0
   -1.9190    1.4310   11.2650 C   0  0  0  0  0  0  0  0  0  0  0  0
   -1.6340    0.3320   12.0580 C   0  0  0  0  0  0  0  0  0  0  0  0
   -0.2130   -0.6830   13.9070 C   0  0  0  0  0  0  0  0  0  0  0  0
   -0.7800   -2.5740   15.2650 C   0  0  0  0  0  0  0  0  0  0  0  0
    0.4980   -2.5900   15.7980 C   0  0  0  0  0  0  0  0  0  0  0  0
    2.7330   -1.7120   15.9030 N   0  0  0  0  0  0  0  0  0  0  0  0
    3.8770   -0.0780   14.4380 C   0  0  0  0  0  0  0  0  0  0  0  0
    5.0510    0.6190   14.1700 C   0  0  0  0  0  0  0  0  0  0  0  0
    6.1420   -0.4400   16.0050 C   0  0  0  0  0  0  0  0  0  0  0  0
    6.1720    0.4530   14.9570 C   0  0  0  0  0  0  0  0  0  0  0  0
    0.7480    6.3520   12.8730 C   0  0  0  0  0  0  0  0  0  0  0  0
    4.9890    2.8400   13.6140 F   0  0  0  0  0  0  0  0  0  0  0  0
    5.1330    1.6190   13.0540 C   0  0  0  0  0  0  0  0  0  0  0  0
    6.3610    1.5480   12.4750 F   0  0  0  0  0  0  0  0  0  0  0  0
    4.1690    1.4370   12.1040 F   0  0  0  0  0  0  0  0  0  0  0  0
    4.9860   -1.1460   16.2790 N   0  0  0  0  0  0  0  0  0  0  0  0
    3.8530   -0.9710   15.5030 C   0  0  0  0  0  0  0  0  0  0  0  0
    1.4220   -1.6360   15.3910 C   0  0  0  0  0  0  0  0  0  0  0  0
    1.0590   -0.6860   14.4680 N   0  0  0  0  0  0  0  0  0  0  0  0
   -1.1470   -1.6190   14.3330 C   0  0  0  0  0  0  0  0  0  0  0  0
    0.6400    3.8480   12.5240 N   0  0  0  0  0  0  0  0  0  0  0  0
    2.0780    3.7960   12.8500 C   0  0  0  0  0  0  0  0  0  0  0  0
    2.3930    4.8600   13.9110 C   0  0  0  0  0  0  0  0  0  0  0  0
    2.1410    6.1800   13.3320 N   0  3  0  0  0  0  0  0  0  0  0  0
    0.2720    5.1860   11.9840 C   0  0  0  0  0  0  0  0  0  0  0  0
    0.9221    1.6211   13.8379 H   0  0  0  0  0  0  0  0  0  0  0  0
   -1.4121    3.4555   10.7738 H   0  0  0  0  0  0  0  0  0  0  0  0
   -2.7229    1.3792   10.5396 H   0  0  0  0  0  0  0  0  0  0  0  0
   -2.2288   -0.5702   11.9723 H   0  0  0  0  0  0  0  0  0  0  0  0
   -1.5016   -3.3184   15.5816 H   0  0  0  0  0  0  0  0  0  0  0  0
    0.7755   -3.3419   16.5279 H   0  0  0  0  0  0  0  0  0  0  0  0
    2.8858   -2.3927   16.6608 H   0  0  0  0  0  0  0  0  0  0  0  0
    2.9951    0.0730   13.8260 H   0  0  0  0  0  0  0  0  0  0  0  0
    7.0255   -0.5892   16.6152 H   0  0  0  0  0  0  0  0  0  0  0  0
    7.0713    1.0223   14.7516 H   0  0  0  0  0  0  0  0  0  0  0  0
    0.6792    7.2862   12.2964 H   0  0  0  0  0  0  0  0  0  0  0  0
    0.0916    6.4153   13.7534 H   0  0  0  0  0  0  0  0  0  0  0  0
   -2.1564   -1.6015   13.9381 H   0  0  0  0  0  0  0  0  0  0  0  0
    2.6684    3.9943   11.9433 H   0  0  0  0  0  0  0  0  0  0  0  0
    2.3309    2.7997   13.2416 H   0  0  0  0  0  0  0  0  0  0  0  0
    3.4479    4.7823   14.2130 H   0  0  0  0  0  0  0  0  0  0  0  0
    1.7481    4.7107   14.7895 H   0  0  0  0  0  0  0  0  0  0  0  0
    2.3380    6.8799   14.0301 H   0  0  0  0  0  0  0  0  0  0  0  0
    2.7569    6.3082   12.5445 H   0  0  0  0  0  0  0  0  0  0  0  0
    0.7257    5.2978   10.9882 H   0  0  0  0  0  0  0  0  0  0  0  0
   -0.8232    5.2381   11.8959 H   0  0  0  0  0  0  0  0  0  0  0  0
  1  2  2  0  0  0  0
  1  3  1  0  0  0  0
  2  4  1  0  0  0  0
  2 30  1  0  0  0  0
  3  5  2  0  0  0  0
  3 31  1  0  0  0  0
  4  6  2  0  0  0  0
  4  7  1  0  0  0  0
  5  6  1  0  0  0  0
  5 32  1  0  0  0  0
  6 33  1  0  0  0  0
  7 23  2  0  0  0  0
  7 24  1  0  0  0  0
  8  9  1  0  0  0  0
  8 34  1  0  0  0  0
  9 35  1  0  0  0  0
 10 21  1  0  0  0  0
 10 36  1  0  0  0  0
 11 12  2  0  0  0  0
 11 37  1  0  0  0  0
 12 14  1  0  0  0  0
 12 17  1  0  0  0  0
 13 14  2  0  0  0  0
 13 38  1  0  0  0  0
 14 39  1  0  0  0  0
 15 28  1  0  0  0  0
 15 40  1  0  0  0  0
 15 41  1  0  0  0  0
 17 16  1  0  0  0  0
 17 18  1  0  0  0  0
 17 19  1  0  0  0  0
 20 13  1  0  0  0  0
 21 11  1  0  0  0  0
 21 20  2  0  0  0  0
 22  9  2  0  0  0  0
 22 10  1  0  0  0  0
 23 22  1  0  0  0  0
 24  8  2  0  0  0  0
 24 42  1  0  0  0  0
 25  1  1  0  0  0  0
 25 26  1  0  0  0  0
 25 29  1  0  0  0  0
 26 27  1  0  0  0  0
 26 43  1  0  0  0  0
 26 44  1  0  0  0  0
 27 28  1  0  0  0  0
 27 45  1  0  0  0  0
 27 46  1  0  0  0  0
 28 47  1  0  0  0  0
 28 48  1  0  0  0  0
 29 15  1  0  0  0  0
 29 49  1  0  0  0  0
 29 50  1  0  0  0  0
M  CHG  1  28   1
M  END
