4f7j_ligand
 OpenBabel08222323353D

 47 48  0  0  0  0  0  0  0  0999 V2000
   -5.2160  -22.2110  150.6480 O   0  0  0  0  0  0  0  0  0  0  0  0
   -4.0980  -22.5990  150.8990 C   0  0  0  0  0  0  0  0  0  0  0  0
   -3.4460  -23.4450  150.0240 N   0  0  0  0  0  0  0  0  0  0  0  0
   -3.9650  -23.9470  148.7430 C   0  0  0  0  0  0  0  0  0  0  0  0
   -2.9340  -23.7590  147.6290 C   0  0  0  0  0  0  0  0  0  0  0  0
   -1.6930  -23.2380  148.1140 O   0  0  0  0  0  0  0  0  0  0  0  0
   -3.4160  -22.2680  152.0620 N   0  0  0  0  0  0  0  0  0  0  0  0
   -3.8570  -21.3780  153.0860 C   0  0  0  0  0  0  0  0  0  0  0  0
   -5.1320  -20.9000  153.3390 C   0  0  0  0  0  0  0  0  0  0  0  0
   -5.0040  -20.0280  154.3940 C   0  0  0  0  0  0  0  0  0  0  0  0
   -6.0880  -19.2050  155.0830 C   0  0  0  0  0  0  0  0  0  0  0  0
   -6.8110  -18.3300  154.0480 C   0  0  0  0  0  0  0  0  0  0  0  0
   -7.1150  -20.1170  155.7560 C   0  0  0  0  0  0  0  0  0  0  0  0
   -5.4260  -18.2980  156.1270 C   0  0  0  0  0  0  0  0  0  0  0  0
   -3.7080  -20.0080  154.7350 N   0  0  0  0  0  0  0  0  0  0  0  0
   -3.0540  -20.7910  153.9960 N   0  0  0  0  0  0  0  0  0  0  0  0
   -1.5930  -20.9110  154.1840 C   0  0  0  0  0  0  0  0  0  0  0  0
   -1.0880  -21.0480  155.4760 C   0  0  0  0  0  0  0  0  0  0  0  0
   -0.7010  -20.8160  153.1070 C   0  0  0  0  0  0  0  0  0  0  0  0
    0.6670  -20.8900  153.3170 C   0  0  0  0  0  0  0  0  0  0  0  0
    1.1630  -21.0460  154.6130 C   0  0  0  0  0  0  0  0  0  0  0  0
    2.6540  -21.1380  154.8630 C   0  0  0  0  0  0  0  0  0  0  0  0
    0.2790  -21.1190  155.6880 C   0  0  0  0  0  0  0  0  0  0  0  0
   -2.5296  -23.7463  150.2877 H   0  0  0  0  0  0  0  0  0  0  0  0
   -4.8808  -23.3955  148.4838 H   0  0  0  0  0  0  0  0  0  0  0  0
   -4.1974  -25.0175  148.8425 H   0  0  0  0  0  0  0  0  0  0  0  0
   -3.3428  -23.0605  146.8840 H   0  0  0  0  0  0  0  0  0  0  0  0
   -2.7461  -24.7332  147.1540 H   0  0  0  0  0  0  0  0  0  0  0  0
   -1.0874  -23.1390  147.3888 H   0  0  0  0  0  0  0  0  0  0  0  0
   -2.5231  -22.6980  152.1958 H   0  0  0  0  0  0  0  0  0  0  0  0
   -6.0478  -21.1612  152.8107 H   0  0  0  0  0  0  0  0  0  0  0  0
   -7.5915  -17.7385  154.5491 H   0  0  0  0  0  0  0  0  0  0  0  0
   -7.2720  -18.9721  153.2830 H   0  0  0  0  0  0  0  0  0  0  0  0
   -6.0874  -17.6528  153.5708 H   0  0  0  0  0  0  0  0  0  0  0  0
   -6.6107  -20.7502  156.5007 H   0  0  0  0  0  0  0  0  0  0  0  0
   -7.5932  -20.7536  154.9970 H   0  0  0  0  0  0  0  0  0  0  0  0
   -7.8797  -19.5031  156.2543 H   0  0  0  0  0  0  0  0  0  0  0  0
   -4.6899  -17.6468  155.6329 H   0  0  0  0  0  0  0  0  0  0  0  0
   -4.9195  -18.9170  156.8821 H   0  0  0  0  0  0  0  0  0  0  0  0
   -6.1936  -17.6794  156.6149 H   0  0  0  0  0  0  0  0  0  0  0  0
   -1.7681  -21.0992  156.3186 H   0  0  0  0  0  0  0  0  0  0  0  0
   -1.0842  -20.6836  152.1017 H   0  0  0  0  0  0  0  0  0  0  0  0
    1.3500  -20.8270  152.4776 H   0  0  0  0  0  0  0  0  0  0  0  0
    2.8383  -21.2576  155.9408 H   0  0  0  0  0  0  0  0  0  0  0  0
    3.1429  -20.2191  154.5072 H   0  0  0  0  0  0  0  0  0  0  0  0
    3.0637  -22.0041  154.3227 H   0  0  0  0  0  0  0  0  0  0  0  0
    0.6632  -21.2319  156.6953 H   0  0  0  0  0  0  0  0  0  0  0  0
  1  2  2  0  0  0  0
  2  3  1  0  0  0  0
  2  7  1  0  0  0  0
  3  4  1  0  0  0  0
  3 24  1  0  0  0  0
  4  5  1  0  0  0  0
  4 25  1  0  0  0  0
  4 26  1  0  0  0  0
  5  6  1  0  0  0  0
  5 27  1  0  0  0  0
  5 28  1  0  0  0  0
  6 29  1  0  0  0  0
  7  8  1  0  0  0  0
  7 30  1  0  0  0  0
  8  9  2  0  0  0  0
  8 16  1  0  0  0  0
  9 10  1  0  0  0  0
  9 31  1  0  0  0  0
 10 11  1  0  0  0  0
 10 15  2  0  0  0  0
 11 12  1  0  0  0  0
 11 13  1  0  0  0  0
 11 14  1  0  0  0  0
 12 32  1  0  0  0  0
 12 33  1  0  0  0  0
 12 34  1  0  0  0  0
 13 35  1  0  0  0  0
 13 36  1  0  0  0  0
 13 37  1  0  0  0  0
 14 38  1  0  0  0  0
 14 39  1  0  0  0  0
 14 40  1  0  0  0  0
 15 16  1  0  0  0  0
 16 17  1  0  0  0  0
 17 18  2  0  0  0  0
 17 19  1  0  0  0  0
 18 23  1  0  0  0  0
 18 41  1  0  0  0  0
 19 20  2  0  0  0  0
 19 42  1  0  0  0  0
 20 21  1  0  0  0  0
 20 43  1  0  0  0  0
 21 22  1  0  0  0  0
 21 23  2  0  0  0  0
 22 44  1  0  0  0  0
 22 45  1  0  0  0  0
 22 46  1  0  0  0  0
 23 47  1  0  0  0  0
M  END
