4f9v_ligand
 OpenBabel08222323353D

 42 43  0  0  0  0  0  0  0  0999 V2000
   10.6100  138.7110  -18.9940 C   0  0  0  0  0  0  0  0  0  0  0  0
   15.7020  136.9410  -18.3690 C   0  0  0  0  0  0  0  0  0  0  0  0
   14.6340  136.8130  -11.3040 S   0  0  0  0  0  0  0  0  0  0  0  0
    8.0210  131.5800  -14.1040 C   0  0  0  0  0  0  0  0  0  0  0  0
   12.2100  138.4820  -15.0550 C   0  0  0  0  0  0  0  0  0  0  0  0
   11.6730  138.5980  -16.3500 C   0  0  0  0  0  0  0  0  0  0  0  0
    9.2110  131.9000  -13.5210 C   0  0  0  0  0  0  0  0  0  0  0  0
    7.7020  133.2020  -12.6720 C   0  0  0  0  0  0  0  0  0  0  0  0
   14.2280  137.5480  -16.0430 C   0  0  0  0  0  0  0  0  0  0  0  0
   10.8980  134.4090  -12.7100 C   0  0  0  0  0  0  0  0  0  0  0  0
   11.7890  135.3760  -11.9200 C   0  0  0  0  0  0  0  0  0  0  0  0
   10.0340  133.5180  -11.8160 C   0  0  0  0  0  0  0  0  0  0  0  0
    7.0860  132.4030  -13.5640 N   0  0  0  0  0  0  0  0  0  0  0  0
   12.4700  136.2820  -12.8650 N   0  0  0  0  0  0  0  0  0  0  0  0
   14.1200  137.7560  -13.6840 N   0  0  0  0  0  0  0  0  0  0  0  0
   11.9750  138.2940  -18.7630 O   0  0  0  0  0  0  0  0  0  0  0  0
   14.3320  137.3420  -18.4550 O   0  0  0  0  0  0  0  0  0  0  0  0
   13.6530  136.9510  -12.7090 C   0  0  0  0  0  0  0  0  0  0  0  0
   13.4950  137.9490  -14.9220 C   0  0  0  0  0  0  0  0  0  0  0  0
   12.4260  138.1980  -17.4610 C   0  0  0  0  0  0  0  0  0  0  0  0
   13.6770  137.6810  -17.3080 C   0  0  0  0  0  0  0  0  0  0  0  0
    8.9970  132.8810  -12.6340 N   0  0  0  0  0  0  0  0  0  0  0  0
   10.4123  138.7357  -20.0758 H   0  0  0  0  0  0  0  0  0  0  0  0
   10.4564  139.7144  -18.5702 H   0  0  0  0  0  0  0  0  0  0  0  0
    9.9228  138.0002  -18.5118 H   0  0  0  0  0  0  0  0  0  0  0  0
   16.0783  136.7032  -19.3749 H   0  0  0  0  0  0  0  0  0  0  0  0
   15.7841  136.0515  -17.7271 H   0  0  0  0  0  0  0  0  0  0  0  0
   16.2974  137.7598  -17.9389 H   0  0  0  0  0  0  0  0  0  0  0  0
    7.8528  130.8121  -14.8577 H   0  0  0  0  0  0  0  0  0  0  0  0
   11.6438  138.7968  -14.1859 H   0  0  0  0  0  0  0  0  0  0  0  0
   10.6749  138.9976  -16.4882 H   0  0  0  0  0  0  0  0  0  0  0  0
   10.1722  131.4369  -13.7392 H   0  0  0  0  0  0  0  0  0  0  0  0
    7.2231  133.9806  -12.0801 H   0  0  0  0  0  0  0  0  0  0  0  0
   15.2230  137.1348  -15.9234 H   0  0  0  0  0  0  0  0  0  0  0  0
   11.5420  133.7652  -13.3271 H   0  0  0  0  0  0  0  0  0  0  0  0
   10.2355  134.9974  -13.3617 H   0  0  0  0  0  0  0  0  0  0  0  0
   12.5380  134.8060  -11.3508 H   0  0  0  0  0  0  0  0  0  0  0  0
   11.1705  135.9640  -11.2260 H   0  0  0  0  0  0  0  0  0  0  0  0
    9.5618  134.1291  -11.0327 H   0  0  0  0  0  0  0  0  0  0  0  0
   10.6619  132.7448  -11.3492 H   0  0  0  0  0  0  0  0  0  0  0  0
   12.0035  136.4265  -13.7376 H   0  0  0  0  0  0  0  0  0  0  0  0
   14.9722  138.2498  -13.5112 H   0  0  0  0  0  0  0  0  0  0  0  0
  1 23  1  0  0  0  0
  1 24  1  0  0  0  0
  1 25  1  0  0  0  0
  2 26  1  0  0  0  0
  2 27  1  0  0  0  0
  2 28  1  0  0  0  0
  4 29  1  0  0  0  0
  5  6  2  0  0  0  0
  5 30  1  0  0  0  0
  6 20  1  0  0  0  0
  6 31  1  0  0  0  0
  7  4  2  0  0  0  0
  7 32  1  0  0  0  0
  8 13  2  0  0  0  0
  8 33  1  0  0  0  0
  9 19  2  0  0  0  0
  9 34  1  0  0  0  0
 10 12  1  0  0  0  0
 10 35  1  0  0  0  0
 10 36  1  0  0  0  0
 11 10  1  0  0  0  0
 11 37  1  0  0  0  0
 11 38  1  0  0  0  0
 12 22  1  0  0  0  0
 12 39  1  0  0  0  0
 12 40  1  0  0  0  0
 13  4  1  0  0  0  0
 14 11  1  0  0  0  0
 14 41  1  0  0  0  0
 15 18  1  0  0  0  0
 15 42  1  0  0  0  0
 16  1  1  0  0  0  0
 17  2  1  0  0  0  0
 17 21  1  0  0  0  0
 18  3  2  0  0  0  0
 18 14  1  0  0  0  0
 19  5  1  0  0  0  0
 19 15  1  0  0  0  0
 20 16  1  0  0  0  0
 20 21  2  0  0  0  0
 21  9  1  0  0  0  0
 22  7  1  0  0  0  0
 22  8  1  0  0  0  0
M  END
