4fab_ligand
 OpenBabel08222323353D

 38 41  0  0  0  0  0  0  0  0999 V2000
   27.0670  -13.2280   22.3790 C   0  0  0  0  0  0  0  0  0  0  0  0
   27.6360  -12.8000   23.5350 O   0  0  0  0  0  0  0  0  0  0  0  0
   26.4740  -12.2630   21.6200 C   0  0  0  0  0  0  0  0  0  0  0  0
   25.8540  -12.6400   20.4480 C   0  0  0  0  0  0  0  0  0  0  0  0
   25.2630  -11.6650   19.7100 O   0  0  0  0  0  0  0  0  0  0  0  0
   24.6290  -11.9710   18.5270 C   0  0  0  0  0  0  0  0  0  0  0  0
   24.0370  -10.9440   17.8220 C   0  0  0  0  0  0  0  0  0  0  0  0
   23.4150  -11.2430   16.6430 C   0  0  0  0  0  0  0  0  0  0  0  0
   22.8830  -10.1550   16.0270 O   0  0  0  0  0  0  0  0  0  0  0  0
   23.3820  -12.5890   16.1740 C   0  0  0  0  0  0  0  0  0  0  0  0
   23.9800  -13.6070   16.9060 C   0  0  0  0  0  0  0  0  0  0  0  0
   24.6000  -13.2920   18.0710 C   0  0  0  0  0  0  0  0  0  0  0  0
   25.2020  -14.2860   18.7780 C   0  0  0  0  0  0  0  0  0  0  0  0
   25.8250  -13.9730   20.0110 C   0  0  0  0  0  0  0  0  0  0  0  0
   26.4100  -14.9440   20.7500 C   0  0  0  0  0  0  0  0  0  0  0  0
   27.0350  -14.5860   21.9450 C   0  0  0  0  0  0  0  0  0  0  0  0
   25.0930  -15.5810   18.3250 C   0  0  0  0  0  0  0  0  0  0  0  0
   23.8440  -16.1090   18.4530 C   0  0  0  0  0  0  0  0  0  0  0  0
   23.6420  -17.3960   17.9610 C   0  0  0  0  0  0  0  0  0  0  0  0
   24.6940  -18.1930   17.3610 C   0  0  0  0  0  0  0  0  0  0  0  0
   25.9290  -17.6610   17.2470 C   0  0  0  0  0  0  0  0  0  0  0  0
   26.1200  -16.3230   17.7100 C   0  0  0  0  0  0  0  0  0  0  0  0
   27.3480  -15.7820   17.5840 C   0  0  0  0  0  0  0  0  0  0  0  0
   28.3840  -16.5040   18.0780 O   0  5  0  0  0  0  0  0  0  0  0  0
   27.6730  -14.7020   16.9940 O   0  0  0  0  0  0  0  0  0  0  0  0
   28.0202  -13.5399   23.9905 H   0  0  0  0  0  0  0  0  0  0  0  0
   26.4897  -11.2246   21.9306 H   0  0  0  0  0  0  0  0  0  0  0  0
   24.0645   -9.9261   18.1937 H   0  0  0  0  0  0  0  0  0  0  0  0
   23.5735   -9.5306   15.8373 H   0  0  0  0  0  0  0  0  0  0  0  0
   22.8860  -12.8200   15.2382 H   0  0  0  0  0  0  0  0  0  0  0  0
   23.9519  -14.6318   16.5537 H   0  0  0  0  0  0  0  0  0  0  0  0
   26.1493  -14.1487   18.2360 H   0  0  0  0  0  0  0  0  0  0  0  0
   26.3934  -15.9767   20.4210 H   0  0  0  0  0  0  0  0  0  0  0  0
   27.5033  -15.3518   22.5527 H   0  0  0  0  0  0  0  0  0  0  0  0
   23.0402  -15.5503   18.9187 H   0  0  0  0  0  0  0  0  0  0  0  0
   22.6482  -17.8234   18.0301 H   0  0  0  0  0  0  0  0  0  0  0  0
   24.4921  -19.1986   17.0101 H   0  0  0  0  0  0  0  0  0  0  0  0
   26.7473  -18.2289   16.8192 H   0  0  0  0  0  0  0  0  0  0  0  0
  1  2  1  0  0  0  0
  1  3  2  0  0  0  0
  1 16  1  0  0  0  0
  2 26  1  0  0  0  0
  3  4  1  0  0  0  0
  3 27  1  0  0  0  0
  4  5  1  0  0  0  0
  4 14  2  0  0  0  0
  5  6  1  0  0  0  0
  6  7  2  0  0  0  0
  6 12  1  0  0  0  0
  7  8  1  0  0  0  0
  7 28  1  0  0  0  0
  8  9  1  0  0  0  0
  8 10  2  0  0  0  0
  9 29  1  0  0  0  0
 10 11  1  0  0  0  0
 10 30  1  0  0  0  0
 11 12  2  0  0  0  0
 11 31  1  0  0  0  0
 12 13  1  0  0  0  0
 13 14  1  0  0  0  0
 13 17  1  0  0  0  0
 13 32  1  0  0  0  0
 14 15  1  0  0  0  0
 15 16  2  0  0  0  0
 15 33  1  0  0  0  0
 16 34  1  0  0  0  0
 17 18  2  0  0  0  0
 17 22  1  0  0  0  0
 18 19  1  0  0  0  0
 18 35  1  0  0  0  0
 19 20  2  0  0  0  0
 19 36  1  0  0  0  0
 20 21  1  0  0  0  0
 20 37  1  0  0  0  0
 21 22  2  0  0  0  0
 21 38  1  0  0  0  0
 22 23  1  0  0  0  0
 23 24  1  0  0  0  0
 23 25  2  0  0  0  0
M  CHG  1  24  -1
M  END
