4fbx_ligand
 OpenBabel08222323353D

 22 23  0  0  0  0  0  0  0  0999 V2000
   16.3200   -6.2860   17.5920 Br  0  0  0  0  0  0  0  0  0  0  0  0
   17.5620   -4.8680   18.1130 C   0  0  0  0  0  0  0  0  0  0  0  0
   17.8830   -4.6590   19.4480 C   0  0  0  0  0  0  0  0  0  0  0  0
   17.1210   -5.7640   20.8490 Br  0  0  0  0  0  0  0  0  0  0  0  0
   18.7790   -3.6290   19.7930 C   0  0  0  0  0  0  0  0  0  0  0  0
   19.2310   -3.3350   21.6460 Br  0  0  0  0  0  0  0  0  0  0  0  0
   19.3510   -2.8100   18.8050 C   0  0  0  0  0  0  0  0  0  0  0  0
   20.5750   -1.4210   19.4010 Br  0  0  0  0  0  0  0  0  0  0  0  0
   19.0220   -3.0190   17.4380 C   0  0  0  0  0  0  0  0  0  0  0  0
   18.1340   -4.0420   17.1010 C   0  0  0  0  0  0  0  0  0  0  0  0
   17.9850   -4.0360   15.7300 N   0  0  0  0  0  0  0  0  0  0  0  0
   18.7540   -3.0460   15.2320 C   0  0  0  0  0  0  0  0  0  0  0  0
   19.3970   -2.4240   16.2410 N   0  0  0  0  0  0  0  0  0  0  0  0
   20.2970   -1.2820   16.0630 C   0  0  0  0  0  0  0  0  0  0  0  0
   19.5670    0.0240   16.1060 C   0  0  0  0  0  0  0  0  0  0  0  0
   18.7960    0.3080   15.2030 O   0  0  0  0  0  0  0  0  0  0  0  0
   19.7370    0.9160   17.1990 N   0  0  0  0  0  0  0  0  0  0  0  0
   18.8420   -2.7887   14.1775 H   0  0  0  0  0  0  0  0  0  0  0  0
   20.7995   -1.3752   15.0890 H   0  0  0  0  0  0  0  0  0  0  0  0
   21.0486   -1.2945   16.8661 H   0  0  0  0  0  0  0  0  0  0  0  0
   19.2436    1.7856   17.2161 H   0  0  0  0  0  0  0  0  0  0  0  0
   20.3500    0.6741   17.9511 H   0  0  0  0  0  0  0  0  0  0  0  0
  1  2  1  0  0  0  0
  2  3  2  0  0  0  0
  2 10  1  0  0  0  0
  3  4  1  0  0  0  0
  3  5  1  0  0  0  0
  5  6  1  0  0  0  0
  5  7  2  0  0  0  0
  7  8  1  0  0  0  0
  7  9  1  0  0  0  0
  9 10  2  0  0  0  0
  9 13  1  0  0  0  0
 10 11  1  0  0  0  0
 11 12  2  0  0  0  0
 12 13  1  0  0  0  0
 12 18  1  0  0  0  0
 13 14  1  0  0  0  0
 14 15  1  0  0  0  0
 14 19  1  0  0  0  0
 14 20  1  0  0  0  0
 15 16  2  0  0  0  0
 15 17  1  0  0  0  0
 17 21  1  0  0  0  0
 17 22  1  0  0  0  0
M  END
