4fcb_ligand
 OpenBabel08222323353D

 54 58  0  0  0  0  0  0  0  0999 V2000
   17.2610   -9.6020  -36.2400 C   0  0  0  0  0  0  0  0  0  0  0  0
   17.6580  -10.2310  -34.9150 C   0  0  0  0  0  0  0  0  0  0  0  0
   19.1130   -9.9130  -34.5660 C   0  0  0  0  0  0  0  0  0  0  0  0
   19.7040  -11.0500  -33.8050 C   0  0  0  0  0  0  0  0  0  0  0  0
   19.6640  -11.0670  -32.4880 N   0  0  0  0  0  0  0  0  0  0  0  0
   20.2700  -12.2240  -32.0810 C   0  0  0  0  0  0  0  0  0  0  0  0
   20.6970  -12.9540  -33.1750 C   0  0  0  0  0  0  0  0  0  0  0  0
   20.3290  -12.1910  -34.2940 N   0  0  0  0  0  0  0  0  0  0  0  0
   20.6270  -12.6660  -35.6070 C   0  0  0  0  0  0  0  0  0  0  0  0
   20.3140  -12.0020  -36.7960 C   0  0  0  0  0  0  0  0  0  0  0  0
   20.6630  -12.5640  -38.0340 C   0  0  0  0  0  0  0  0  0  0  0  0
   21.3250  -13.7990  -38.1050 C   0  0  0  0  0  0  0  0  0  0  0  0
   21.6360  -14.4640  -36.9170 C   0  0  0  0  0  0  0  0  0  0  0  0
   21.2980  -13.9090  -35.6710 C   0  0  0  0  0  0  0  0  0  0  0  0
   21.6670  -14.6620  -34.5320 N   0  0  0  0  0  0  0  0  0  0  0  0
   21.3890  -14.2230  -33.3460 C   0  0  0  0  0  0  0  0  0  0  0  0
   21.8260  -15.1040  -32.2090 C   0  0  0  0  0  0  0  0  0  0  0  0
   21.6040  -14.2540  -39.3680 O   0  0  0  0  0  0  0  0  0  0  0  0
   22.6720  -15.2010  -39.4860 C   0  0  0  0  0  0  0  0  0  0  0  0
   22.4320  -16.0350  -40.7110 C   0  0  0  0  0  0  0  0  0  0  0  0
   22.8950  -15.5890  -41.9450 C   0  0  0  0  0  0  0  0  0  0  0  0
   22.6580  -16.3800  -43.0680 C   0  0  0  0  0  0  0  0  0  0  0  0
   21.9670  -17.5950  -42.9380 C   0  0  0  0  0  0  0  0  0  0  0  0
   21.7130  -18.4200  -44.0520 C   0  0  0  0  0  0  0  0  0  0  0  0
   21.0250  -19.6240  -43.8890 C   0  0  0  0  0  0  0  0  0  0  0  0
   20.5920  -20.0080  -42.6240 C   0  0  0  0  0  0  0  0  0  0  0  0
   20.8490  -19.1880  -41.5160 C   0  0  0  0  0  0  0  0  0  0  0  0
   21.5300  -17.9790  -41.6420 C   0  0  0  0  0  0  0  0  0  0  0  0
   21.7590  -17.2090  -40.5530 N   0  0  0  0  0  0  0  0  0  0  0  0
   20.3680  -12.4840  -30.6310 C   0  0  0  0  0  0  0  0  0  0  0  0
   16.2123   -9.8479  -36.4629 H   0  0  0  0  0  0  0  0  0  0  0  0
   17.9072   -9.9929  -37.0397 H   0  0  0  0  0  0  0  0  0  0  0  0
   17.3760   -8.5099  -36.1765 H   0  0  0  0  0  0  0  0  0  0  0  0
   17.5359  -11.3220  -34.9848 H   0  0  0  0  0  0  0  0  0  0  0  0
   17.0048   -9.8389  -34.1216 H   0  0  0  0  0  0  0  0  0  0  0  0
   19.1514   -9.0017  -33.9512 H   0  0  0  0  0  0  0  0  0  0  0  0
   19.6856   -9.7551  -35.4919 H   0  0  0  0  0  0  0  0  0  0  0  0
   19.7993  -11.0486  -36.7622 H   0  0  0  0  0  0  0  0  0  0  0  0
   20.4175  -12.0362  -38.9484 H   0  0  0  0  0  0  0  0  0  0  0  0
   22.1446  -15.4205  -36.9565 H   0  0  0  0  0  0  0  0  0  0  0  0
   22.3239  -15.9994  -32.6094 H   0  0  0  0  0  0  0  0  0  0  0  0
   20.9472  -15.4056  -31.6201 H   0  0  0  0  0  0  0  0  0  0  0  0
   22.5266  -14.5517  -31.5655 H   0  0  0  0  0  0  0  0  0  0  0  0
   22.6961  -15.8467  -38.5958 H   0  0  0  0  0  0  0  0  0  0  0  0
   23.6308  -14.6700  -39.5800 H   0  0  0  0  0  0  0  0  0  0  0  0
   23.4274  -14.6487  -42.0310 H   0  0  0  0  0  0  0  0  0  0  0  0
   23.0074  -16.0568  -44.0419 H   0  0  0  0  0  0  0  0  0  0  0  0
   22.0522  -18.1194  -45.0367 H   0  0  0  0  0  0  0  0  0  0  0  0
   20.8287  -20.2580  -44.7461 H   0  0  0  0  0  0  0  0  0  0  0  0
   20.0559  -20.9412  -42.4948 H   0  0  0  0  0  0  0  0  0  0  0  0
   20.5091  -19.5028  -40.5360 H   0  0  0  0  0  0  0  0  0  0  0  0
   20.8763  -13.4452  -30.4644 H   0  0  0  0  0  0  0  0  0  0  0  0
   19.3583  -12.5230  -30.1964 H   0  0  0  0  0  0  0  0  0  0  0  0
   20.9425  -11.6776  -30.1519 H   0  0  0  0  0  0  0  0  0  0  0  0
  1  2  1  0  0  0  0
  1 31  1  0  0  0  0
  1 32  1  0  0  0  0
  1 33  1  0  0  0  0
  2  3  1  0  0  0  0
  2 34  1  0  0  0  0
  2 35  1  0  0  0  0
  3  4  1  0  0  0  0
  3 36  1  0  0  0  0
  3 37  1  0  0  0  0
  4  5  2  0  0  0  0
  4  8  1  0  0  0  0
  5  6  1  0  0  0  0
  6  7  2  0  0  0  0
  6 30  1  0  0  0  0
  7  8  1  0  0  0  0
  7 16  1  0  0  0  0
  8  9  1  0  0  0  0
  9 10  2  0  0  0  0
  9 14  1  0  0  0  0
 10 11  1  0  0  0  0
 10 38  1  0  0  0  0
 11 12  2  0  0  0  0
 11 39  1  0  0  0  0
 12 13  1  0  0  0  0
 12 18  1  0  0  0  0
 13 14  2  0  0  0  0
 13 40  1  0  0  0  0
 14 15  1  0  0  0  0
 15 16  2  0  0  0  0
 16 17  1  0  0  0  0
 17 41  1  0  0  0  0
 17 42  1  0  0  0  0
 17 43  1  0  0  0  0
 18 19  1  0  0  0  0
 19 20  1  0  0  0  0
 19 44  1  0  0  0  0
 19 45  1  0  0  0  0
 20 21  2  0  0  0  0
 20 29  1  0  0  0  0
 21 22  1  0  0  0  0
 21 46  1  0  0  0  0
 22 23  2  0  0  0  0
 22 47  1  0  0  0  0
 23 24  1  0  0  0  0
 23 28  1  0  0  0  0
 24 25  2  0  0  0  0
 24 48  1  0  0  0  0
 25 26  1  0  0  0  0
 25 49  1  0  0  0  0
 26 27  2  0  0  0  0
 26 50  1  0  0  0  0
 27 28  1  0  0  0  0
 27 51  1  0  0  0  0
 28 29  2  0  0  0  0
 30 52  1  0  0  0  0
 30 53  1  0  0  0  0
 30 54  1  0  0  0  0
M  END
