4fcm_ligand
 OpenBabel08222323353D

 72 73  0  0  1  0  0  0  0  0999 V2000
  -17.4010   11.6710  -11.8220 N   0  3  0  0  0  0  0  0  0  0  0  0
  -16.7500   12.2730  -10.6640 C   0  0  2  0  0  0  0  0  0  0  0  0
  -15.2990   12.6470  -10.9590 C   0  0  0  0  0  0  0  0  0  0  0  0
  -14.5450   11.8560  -11.5260 O   0  0  0  0  0  0  0  0  0  0  0  0
  -16.8220   11.3330   -9.4590 C   0  0  0  0  0  0  0  0  0  0  0  0
  -15.9860   11.7850   -8.4070 O   0  0  0  0  0  0  0  0  0  0  0  0
  -14.9200   13.8600  -10.5690 N   0  0  0  0  0  0  0  0  0  0  0  0
  -13.5720   14.3550  -10.7790 C   0  0  0  0  0  0  0  0  0  0  0  0
  -13.3880   15.7320  -10.1700 C   0  0  0  0  0  0  0  0  0  0  0  0
  -14.1080   16.1090   -9.2460 O   0  0  0  0  0  0  0  0  0  0  0  0
  -12.4220   16.4870  -10.6830 N   0  0  0  0  0  0  0  0  0  0  0  0
  -12.2030   17.8510  -10.2140 C   0  0  2  0  0  0  0  0  0  0  0  0
  -12.9300   18.8330  -11.1280 C   0  0  0  0  0  0  0  0  0  0  0  0
  -13.1670   18.5410  -12.3010 O   0  0  0  0  0  0  0  0  0  0  0  0
  -10.7060   18.1680  -10.1290 C   0  0  0  0  0  0  0  0  0  0  0  0
  -10.1460   18.8210  -11.3610 C   0  0  0  0  0  0  0  0  0  0  0  0
   -9.8310   20.1700  -11.3600 C   0  0  0  0  0  0  0  0  0  0  0  0
   -9.9300   18.0880  -12.5150 C   0  0  0  0  0  0  0  0  0  0  0  0
   -9.3140   20.7760  -12.4880 C   0  0  0  0  0  0  0  0  0  0  0  0
   -9.4140   18.6900  -13.6470 C   0  0  0  0  0  0  0  0  0  0  0  0
   -9.1060   20.0360  -13.6330 C   0  0  0  0  0  0  0  0  0  0  0  0
  -13.2850   19.9940  -10.5900 N   0  0  0  0  0  0  0  0  0  0  0  0
  -14.1470   20.9270  -11.3070 C   0  0  2  0  0  0  0  0  0  0  0  0
  -13.4480   22.2220  -11.7140 C   0  0  0  0  0  0  0  0  0  0  0  0
  -12.3660   22.5420  -11.2210 O   0  0  0  0  0  0  0  0  0  0  0  0
  -15.3870   21.2450  -10.4680 C   0  0  0  0  0  0  0  0  0  0  0  0
  -16.1250   20.0680  -10.1890 O   0  0  0  0  0  0  0  0  0  0  0  0
  -14.0830   22.9610  -12.6190 N   0  0  0  0  0  0  0  0  0  0  0  0
  -13.5550   24.2380  -13.0830 C   0  0  2  0  0  0  0  0  0  0  0  0
  -14.6820   25.2100  -13.4160 C   0  0  0  0  0  0  0  0  0  0  0  0
  -14.4804   26.4537  -13.4303 O   0  5  0  0  0  0  0  0  0  0  0  0
  -12.6590   24.0360  -14.3050 C   0  0  0  0  0  0  0  0  0  0  0  0
  -11.3020   24.6590  -14.1670 C   0  0  0  0  0  0  0  0  0  0  0  0
  -10.2580   23.9490  -13.6030 C   0  0  0  0  0  0  0  0  0  0  0  0
  -11.0720   25.9570  -14.5930 C   0  0  0  0  0  0  0  0  0  0  0  0
   -9.0110   24.5170  -13.4700 C   0  0  0  0  0  0  0  0  0  0  0  0
   -9.8220   26.5320  -14.4620 C   0  0  0  0  0  0  0  0  0  0  0  0
   -8.7910   25.8110  -13.8990 C   0  0  0  0  0  0  0  0  0  0  0  0
  -15.8302   24.7635  -13.6804 O   0  0  0  0  0  0  0  0  0  0  0  0
  -18.3537   11.4387  -11.5888 H   0  0  0  0  0  0  0  0  0  0  0  0
  -16.9066   10.8338  -12.0880 H   0  0  0  0  0  0  0  0  0  0  0  0
  -17.3927   12.3244  -12.5895 H   0  0  0  0  0  0  0  0  0  0  0  0
  -17.2933   13.1958  -10.4126 H   0  0  0  0  0  0  0  0  0  0  0  0
  -16.4988   10.3280   -9.7678 H   0  0  0  0  0  0  0  0  0  0  0  0
  -17.8605   11.2897   -9.0989 H   0  0  0  0  0  0  0  0  0  0  0  0
  -15.0869   11.8205   -8.7115 H   0  0  0  0  0  0  0  0  0  0  0  0
  -15.5865   14.4516  -10.1154 H   0  0  0  0  0  0  0  0  0  0  0  0
  -13.3759   14.4124  -11.8598 H   0  0  0  0  0  0  0  0  0  0  0  0
  -12.8585   13.6593  -10.3133 H   0  0  0  0  0  0  0  0  0  0  0  0
  -11.8357   16.1141  -11.4022 H   0  0  0  0  0  0  0  0  0  0  0  0
  -12.6277   17.9420   -9.2034 H   0  0  0  0  0  0  0  0  0  0  0  0
  -10.1627   17.2267   -9.9598 H   0  0  0  0  0  0  0  0  0  0  0  0
  -10.5438   18.8434   -9.2761 H   0  0  0  0  0  0  0  0  0  0  0  0
   -9.9923   20.7569  -10.4630 H   0  0  0  0  0  0  0  0  0  0  0  0
  -10.1681   17.0306  -12.5311 H   0  0  0  0  0  0  0  0  0  0  0  0
   -9.0718   21.8325  -12.4735 H   0  0  0  0  0  0  0  0  0  0  0  0
   -9.2511   18.1058  -14.5455 H   0  0  0  0  0  0  0  0  0  0  0  0
   -8.7016   20.5099  -14.5201 H   0  0  0  0  0  0  0  0  0  0  0  0
  -12.9554   20.2330   -9.6766 H   0  0  0  0  0  0  0  0  0  0  0  0
  -14.4767   20.4271  -12.2297 H   0  0  0  0  0  0  0  0  0  0  0  0
  -16.0263   21.9478  -11.0224 H   0  0  0  0  0  0  0  0  0  0  0  0
  -15.0719   21.7055   -9.5200 H   0  0  0  0  0  0  0  0  0  0  0  0
  -16.8881   20.2900   -9.6684 H   0  0  0  0  0  0  0  0  0  0  0  0
  -14.9496   22.6304  -12.9928 H   0  0  0  0  0  0  0  0  0  0  0  0
  -12.9490   24.6741  -12.2752 H   0  0  0  0  0  0  0  0  0  0  0  0
  -13.1579   24.4805  -15.1788 H   0  0  0  0  0  0  0  0  0  0  0  0
  -12.5303   22.9556  -14.4665 H   0  0  0  0  0  0  0  0  0  0  0  0
  -10.4234   22.9335  -13.2617 H   0  0  0  0  0  0  0  0  0  0  0  0
  -11.8812   26.5279  -15.0339 H   0  0  0  0  0  0  0  0  0  0  0  0
   -8.2011   23.9479  -13.0281 H   0  0  0  0  0  0  0  0  0  0  0  0
   -9.6529   27.5476  -14.8012 H   0  0  0  0  0  0  0  0  0  0  0  0
   -7.8095   26.2588  -13.7932 H   0  0  0  0  0  0  0  0  0  0  0  0
  1  2  1  0  0  0  0
  1 40  1  0  0  0  0
  1 41  1  0  0  0  0
  1 42  1  0  0  0  0
  2  3  1  0  0  0  0
  2  5  1  0  0  0  0
  2 43  1  1  0  0  0
  3  4  2  0  0  0  0
  3  7  1  0  0  0  0
  5  6  1  0  0  0  0
  5 44  1  0  0  0  0
  5 45  1  0  0  0  0
  6 46  1  0  0  0  0
  7  8  1  0  0  0  0
  7 47  1  0  0  0  0
  8  9  1  0  0  0  0
  8 48  1  0  0  0  0
  8 49  1  0  0  0  0
  9 10  2  0  0  0  0
  9 11  1  0  0  0  0
 11 12  1  0  0  0  0
 11 50  1  0  0  0  0
 12 13  1  0  0  0  0
 12 15  1  0  0  0  0
 12 51  1  1  0  0  0
 13 14  2  0  0  0  0
 13 22  1  0  0  0  0
 15 16  1  0  0  0  0
 15 52  1  0  0  0  0
 15 53  1  0  0  0  0
 16 17  2  0  0  0  0
 16 18  1  0  0  0  0
 17 19  1  0  0  0  0
 17 54  1  0  0  0  0
 18 20  2  0  0  0  0
 18 55  1  0  0  0  0
 19 21  2  0  0  0  0
 19 56  1  0  0  0  0
 20 21  1  0  0  0  0
 20 57  1  0  0  0  0
 21 58  1  0  0  0  0
 22 23  1  0  0  0  0
 22 59  1  0  0  0  0
 23 24  1  0  0  0  0
 23 26  1  0  0  0  0
 23 60  1  6  0  0  0
 24 25  2  0  0  0  0
 24 28  1  0  0  0  0
 26 27  1  0  0  0  0
 26 61  1  0  0  0  0
 26 62  1  0  0  0  0
 27 63  1  0  0  0  0
 28 29  1  0  0  0  0
 28 64  1  0  0  0  0
 29 30  1  0  0  0  0
 29 32  1  0  0  0  0
 29 65  1  1  0  0  0
 30 31  1  0  0  0  0
 30 39  2  0  0  0  0
 32 33  1  0  0  0  0
 32 66  1  0  0  0  0
 32 67  1  0  0  0  0
 33 34  2  0  0  0  0
 33 35  1  0  0  0  0
 34 36  1  0  0  0  0
 34 68  1  0  0  0  0
 35 37  2  0  0  0  0
 35 69  1  0  0  0  0
 36 38  2  0  0  0  0
 36 70  1  0  0  0  0
 37 38  1  0  0  0  0
 37 71  1  0  0  0  0
 38 72  1  0  0  0  0
M  CHG  2   1   1  31  -1
M  END
