4fe6_ligand
 OpenBabel08222323353D

 87 91  0  0  1  0  0  0  0  0999 V2000
  -11.4070   15.5120   36.8020 O   0  0  0  0  0  0  0  0  0  0  0  0
  -10.8220   15.6720   35.6970 C   0  0  0  0  0  0  0  0  0  0  0  0
   -9.9170   16.5870   35.3920 N   0  0  0  0  0  0  0  0  0  0  0  0
  -11.1260   14.7520   34.6240 C   0  0  2  0  0  0  0  0  0  0  0  0
  -12.0890   13.6220   34.7800 C   0  0  0  0  0  0  0  0  0  0  0  0
  -12.4030   12.6850   33.6840 C   0  0  0  0  0  0  0  0  0  0  0  0
  -12.6910   13.4760   35.9780 N   0  0  0  0  0  0  0  0  0  0  0  0
  -13.1650   12.2090   36.4840 C   0  0  0  0  0  0  0  0  0  0  0  0
  -10.2570   15.2450   33.5390 C   0  0  0  0  0  0  0  0  0  0  0  0
   -9.5990   16.3610   34.0910 C   0  0  0  0  0  0  0  0  0  0  0  0
   -8.7060   17.0400   33.2970 C   0  0  0  0  0  0  0  0  0  0  0  0
   -8.4840   16.6700   31.9960 C   0  0  0  0  0  0  0  0  0  0  0  0
  -10.0450   14.8570   32.2290 C   0  0  0  0  0  0  0  0  0  0  0  0
   -9.1240   15.5780   31.4760 C   0  0  0  0  0  0  0  0  0  0  0  0
   -8.8690   15.2020   29.9700 S   0  0  0  0  0  0  0  0  0  0  0  0
   -7.6600   15.8170   29.4660 O   0  0  0  0  0  0  0  0  0  0  0  0
   -8.7840   13.7920   29.9080 O   0  0  0  0  0  0  0  0  0  0  0  0
  -10.1490   15.7850   29.3010 N   0  0  0  0  0  0  0  0  0  0  0  0
  -11.4120   15.0170   29.2940 C   0  0  0  0  0  0  0  0  0  0  0  0
  -12.0790   15.1070   27.9270 C   0  0  0  0  0  0  0  0  0  0  0  0
  -13.5430   14.7940   28.1570 C   0  0  0  0  0  0  0  0  0  0  0  0
  -11.4630   13.9860   27.1060 C   0  0  0  0  0  0  0  0  0  0  0  0
  -10.2100   17.2160   28.9180 C   0  0  0  0  0  0  0  0  0  0  0  0
  -10.0490   17.5370   27.4530 C   0  0  1  0  0  0  0  0  0  0  0  0
  -10.3050   18.9250   27.3020 O   0  0  0  0  0  0  0  0  0  0  0  0
   -8.6490   17.3350   26.9140 C   0  0  2  0  0  0  0  0  0  0  0  0
   -7.5690   18.3300   27.4090 C   0  0  0  0  0  0  0  0  0  0  0  0
   -6.2250   18.0070   26.7830 C   0  0  0  0  0  0  0  0  0  0  0  0
   -5.6560   16.7500   26.9940 C   0  0  0  0  0  0  0  0  0  0  0  0
   -4.4440   16.4700   26.3910 C   0  0  0  0  0  0  0  0  0  0  0  0
   -3.7500   17.3720   25.5620 C   0  0  0  0  0  0  0  0  0  0  0  0
   -4.3390   18.6220   25.3700 C   0  0  0  0  0  0  0  0  0  0  0  0
   -5.5490   18.9380   25.9730 C   0  0  0  0  0  0  0  0  0  0  0  0
   -8.8860   17.4770   25.5100 N   0  0  0  0  0  0  0  0  0  0  0  0
   -8.4390   16.5570   24.6360 C   0  0  0  0  0  0  0  0  0  0  0  0
   -8.1100   15.4200   24.9340 O   0  0  0  0  0  0  0  0  0  0  0  0
   -8.3780   17.0240   23.2740 O   0  0  0  0  0  0  0  0  0  0  0  0
   -8.1570   16.1150   22.2030 C   0  0  2  0  0  0  0  0  0  0  0  0
   -6.8350   16.5560   21.6130 C   0  0  2  0  0  0  0  0  0  0  0  0
   -5.9130   17.1860   22.6560 C   0  0  0  0  0  0  0  0  0  0  0  0
   -5.7740   18.6220   22.2090 C   0  0  0  0  0  0  0  0  0  0  0  0
   -6.9420   18.8620   21.4350 O   0  0  0  0  0  0  0  0  0  0  0  0
   -7.2020   17.6710   20.6690 C   0  0  2  0  0  0  0  0  0  0  0  0
   -8.5800   17.4390   20.2860 O   0  0  0  0  0  0  0  0  0  0  0  0
   -9.1910   16.4720   21.1450 C   0  0  0  0  0  0  0  0  0  0  0  0
   -9.5455   17.2953   35.9922 H   0  0  0  0  0  0  0  0  0  0  0  0
  -11.9696   15.3504   34.2495 H   0  0  0  0  0  0  0  0  0  0  0  0
  -13.1344   11.9421   34.0350 H   0  0  0  0  0  0  0  0  0  0  0  0
  -11.4836   12.1721   33.3653 H   0  0  0  0  0  0  0  0  0  0  0  0
  -12.8252   13.2423   32.8348 H   0  0  0  0  0  0  0  0  0  0  0  0
  -13.6151   12.3560   37.4769 H   0  0  0  0  0  0  0  0  0  0  0  0
  -12.3216   11.5074   36.5640 H   0  0  0  0  0  0  0  0  0  0  0  0
  -13.9194   11.7987   35.7966 H   0  0  0  0  0  0  0  0  0  0  0  0
   -8.1662   17.8854   33.7080 H   0  0  0  0  0  0  0  0  0  0  0  0
   -7.8012   17.2427   31.3788 H   0  0  0  0  0  0  0  0  0  0  0  0
  -10.5801   14.0167   31.8018 H   0  0  0  0  0  0  0  0  0  0  0  0
  -12.0904   15.4276   30.0563 H   0  0  0  0  0  0  0  0  0  0  0  0
  -11.1969   13.9630   29.5239 H   0  0  0  0  0  0  0  0  0  0  0  0
  -11.9396   16.0897   27.4528 H   0  0  0  0  0  0  0  0  0  0  0  0
  -14.0832   14.8432   27.2000 H   0  0  0  0  0  0  0  0  0  0  0  0
  -13.9693   15.5278   28.8568 H   0  0  0  0  0  0  0  0  0  0  0  0
  -13.6397   13.7837   28.5811 H   0  0  0  0  0  0  0  0  0  0  0  0
  -10.3985   14.2015   26.9318 H   0  0  0  0  0  0  0  0  0  0  0  0
  -11.9844   13.9094   26.1405 H   0  0  0  0  0  0  0  0  0  0  0  0
  -11.5602   13.0358   27.6516 H   0  0  0  0  0  0  0  0  0  0  0  0
   -9.4112   17.7404   29.4629 H   0  0  0  0  0  0  0  0  0  0  0  0
  -11.1882   17.6044   29.2379 H   0  0  0  0  0  0  0  0  0  0  0  0
  -10.7606   16.9350   26.8690 H   0  0  0  0  0  0  0  0  0  0  0  0
   -9.6843   19.4191   27.8247 H   0  0  0  0  0  0  0  0  0  0  0  0
   -8.3017   16.3186   27.1515 H   0  0  0  0  0  0  0  0  0  0  0  0
   -7.4853   18.2591   28.5035 H   0  0  0  0  0  0  0  0  0  0  0  0
   -7.8627   19.3524   27.1291 H   0  0  0  0  0  0  0  0  0  0  0  0
   -6.1517   16.0124   27.6147 H   0  0  0  0  0  0  0  0  0  0  0  0
   -4.0008   15.4965   26.5671 H   0  0  0  0  0  0  0  0  0  0  0  0
   -2.8068   17.1088   25.0970 H   0  0  0  0  0  0  0  0  0  0  0  0
   -3.8459   19.3555   24.7424 H   0  0  0  0  0  0  0  0  0  0  0  0
   -5.9809   19.9199   25.8169 H   0  0  0  0  0  0  0  0  0  0  0  0
   -9.3913   18.2717   25.1735 H   0  0  0  0  0  0  0  0  0  0  0  0
   -8.1813   15.0577   22.5055 H   0  0  0  0  0  0  0  0  0  0  0  0
   -6.3329   15.7214   21.1018 H   0  0  0  0  0  0  0  0  0  0  0  0
   -4.9343   16.6840   22.6655 H   0  0  0  0  0  0  0  0  0  0  0  0
   -6.3629   17.1313   23.6583 H   0  0  0  0  0  0  0  0  0  0  0  0
   -4.8681   18.7547   21.5992 H   0  0  0  0  0  0  0  0  0  0  0  0
   -5.7349   19.2982   23.0757 H   0  0  0  0  0  0  0  0  0  0  0  0
   -6.5716   17.6664   19.7676 H   0  0  0  0  0  0  0  0  0  0  0  0
  -10.0875   16.8982   21.6190 H   0  0  0  0  0  0  0  0  0  0  0  0
   -9.4706   15.5768   20.5702 H   0  0  0  0  0  0  0  0  0  0  0  0
  1  2  2  0  0  0  0
  2  3  1  0  0  0  0
  2  4  1  0  0  0  0
  3 10  1  0  0  0  0
  3 46  1  0  0  0  0
  4  5  1  0  0  0  0
  4  9  1  0  0  0  0
  4 47  1  6  0  0  0
  5  6  1  0  0  0  0
  5  7  2  0  0  0  0
  6 48  1  0  0  0  0
  6 49  1  0  0  0  0
  6 50  1  0  0  0  0
  7  8  1  0  0  0  0
  8 51  1  0  0  0  0
  8 52  1  0  0  0  0
  8 53  1  0  0  0  0
  9 10  2  0  0  0  0
  9 13  1  0  0  0  0
 10 11  1  0  0  0  0
 11 12  2  0  0  0  0
 11 54  1  0  0  0  0
 12 14  1  0  0  0  0
 12 55  1  0  0  0  0
 13 14  2  0  0  0  0
 13 56  1  0  0  0  0
 14 15  1  0  0  0  0
 15 16  2  0  0  0  0
 15 17  2  0  0  0  0
 15 18  1  0  0  0  0
 18 19  1  0  0  0  0
 18 23  1  0  0  0  0
 19 20  1  0  0  0  0
 19 57  1  0  0  0  0
 19 58  1  0  0  0  0
 20 21  1  0  0  0  0
 20 22  1  0  0  0  0
 20 59  1  0  0  0  0
 21 60  1  0  0  0  0
 21 61  1  0  0  0  0
 21 62  1  0  0  0  0
 22 63  1  0  0  0  0
 22 64  1  0  0  0  0
 22 65  1  0  0  0  0
 23 24  1  0  0  0  0
 23 66  1  0  0  0  0
 23 67  1  0  0  0  0
 24 25  1  0  0  0  0
 24 26  1  0  0  0  0
 24 68  1  6  0  0  0
 25 69  1  0  0  0  0
 26 27  1  0  0  0  0
 26 34  1  0  0  0  0
 26 70  1  1  0  0  0
 27 28  1  0  0  0  0
 27 71  1  0  0  0  0
 27 72  1  0  0  0  0
 28 29  2  0  0  0  0
 28 33  1  0  0  0  0
 29 30  1  0  0  0  0
 29 73  1  0  0  0  0
 30 31  2  0  0  0  0
 30 74  1  0  0  0  0
 31 32  1  0  0  0  0
 31 75  1  0  0  0  0
 32 33  2  0  0  0  0
 32 76  1  0  0  0  0
 33 77  1  0  0  0  0
 34 35  1  0  0  0  0
 34 78  1  0  0  0  0
 35 36  2  0  0  0  0
 35 37  1  0  0  0  0
 37 38  1  0  0  0  0
 38 39  1  0  0  0  0
 38 45  1  0  0  0  0
 38 79  1  1  0  0  0
 39 40  1  0  0  0  0
 39 43  1  0  0  0  0
 39 80  1  6  0  0  0
 40 41  1  0  0  0  0
 40 81  1  0  0  0  0
 40 82  1  0  0  0  0
 41 42  1  0  0  0  0
 41 83  1  0  0  0  0
 41 84  1  0  0  0  0
 42 43  1  0  0  0  0
 43 44  1  0  0  0  0
 43 85  1  6  0  0  0
 44 45  1  0  0  0  0
 45 86  1  0  0  0  0
 45 87  1  0  0  0  0
M  END
