4fe9_ligand
 OpenBabel08222323353D

 87 90  0  0  1  0  0  0  0  0999 V2000
  -14.2490   88.5190   32.8940 O   0  0  0  0  0  0  0  0  0  0  0  0
  -14.0850   89.8320   33.4580 C   0  0  1  0  0  0  0  0  0  0  0  0
  -14.7660   90.8610   32.5810 C   0  0  2  0  0  0  0  0  0  0  0  0
  -14.2910   90.7790   31.2360 O   0  0  0  0  0  0  0  0  0  0  0  0
  -14.5520   92.2540   33.1830 C   0  0  1  0  0  0  0  0  0  0  0  0
  -15.2490   93.2060   32.3790 O   0  0  0  0  0  0  0  0  0  0  0  0
  -15.0970   92.2970   34.6190 C   0  0  2  0  0  0  0  0  0  0  0  0
  -14.7370   89.9430   34.8320 C   0  0  2  0  0  0  0  0  0  0  0  0
  -14.4500   91.2510   35.3790 O   0  0  0  0  0  0  0  0  0  0  0  0
  -14.3710   88.7980   35.7850 C   0  0  0  0  0  0  0  0  0  0  0  0
  -12.9660   88.8200   36.0490 O   0  0  0  0  0  0  0  0  0  0  0  0
  -16.5260   92.0390   34.5590 O   0  0  0  0  0  0  0  0  0  0  0  0
  -17.3430   92.8130   35.4550 C   0  0  1  0  0  0  0  0  0  0  0  0
  -18.2360   93.7240   34.6400 C   0  0  2  0  0  0  0  0  0  0  0  0
  -17.4380   94.6310   33.8770 O   0  0  0  0  0  0  0  0  0  0  0  0
  -19.1970   94.5100   35.5480 C   0  0  1  0  0  0  0  0  0  0  0  0
  -20.1420   95.1690   34.7180 O   0  0  0  0  0  0  0  0  0  0  0  0
  -19.9830   93.5740   36.4380 C   0  0  2  0  0  0  0  0  0  0  0  0
  -18.2400   91.8930   36.2790 C   0  0  2  0  0  0  0  0  0  0  0  0
  -19.1000   92.6670   37.1140 O   0  0  0  0  0  0  0  0  0  0  0  0
  -17.4180   90.9890   37.1900 C   0  0  0  0  0  0  0  0  0  0  0  0
  -18.2770   89.9710   37.7010 O   0  0  0  0  0  0  0  0  0  0  0  0
  -20.9090   92.8650   35.6320 O   0  0  0  0  0  0  0  0  0  0  0  0
  -22.2070   92.8270   36.1670 C   0  0  1  0  0  0  0  0  0  0  0  0
  -23.1610   93.5240   35.2160 C   0  0  2  0  0  0  0  0  0  0  0  0
  -22.8410   94.9190   35.1440 O   0  0  0  0  0  0  0  0  0  0  0  0
  -24.5870   93.3170   35.6760 C   0  0  1  0  0  0  0  0  0  0  0  0
  -25.4630   93.8680   34.7090 O   0  0  0  0  0  0  0  0  0  0  0  0
  -24.9030   91.8350   35.8410 C   0  0  2  0  0  0  0  0  0  0  0  0
  -22.5910   91.3770   36.3070 C   0  0  2  0  0  0  0  0  0  0  0  0
  -23.9540   91.2450   36.7290 O   0  0  0  0  0  0  0  0  0  0  0  0
  -21.6840   90.6690   37.3080 C   0  0  0  0  0  0  0  0  0  0  0  0
  -22.1000   89.3060   37.3780 O   0  0  0  0  0  0  0  0  0  0  0  0
  -24.8410   91.1780   34.5800 O   0  0  0  0  0  0  0  0  0  0  0  0
  -26.0100   90.4180   34.2630 C   0  0  1  0  0  0  0  0  0  0  0  0
  -26.6740   91.0460   33.0420 C   0  0  2  0  0  0  0  0  0  0  0  0
  -27.2440   92.3120   33.3920 O   0  0  0  0  0  0  0  0  0  0  0  0
  -27.7540   90.1430   32.4450 C   0  0  1  0  0  0  0  0  0  0  0  0
  -28.1250   90.6640   31.1650 O   0  0  0  0  0  0  0  0  0  0  0  0
  -27.2840   88.6950   32.2740 C   0  0  1  0  0  0  0  0  0  0  0  0
  -26.3600   88.5960   31.1760 O   0  0  0  0  0  0  0  0  0  0  0  0
  -25.5790   88.9930   33.9310 C   0  0  2  0  0  0  0  0  0  0  0  0
  -26.6950   88.2110   33.4850 O   0  0  0  0  0  0  0  0  0  0  0  0
  -24.9840   88.3340   35.1560 C   0  0  0  0  0  0  0  0  0  0  0  0
  -24.1730   87.2450   34.7290 O   0  0  0  0  0  0  0  0  0  0  0  0
  -13.8613   88.4973   32.0270 H   0  0  0  0  0  0  0  0  0  0  0  0
  -13.0109   90.0554   33.5379 H   0  0  0  0  0  0  0  0  0  0  0  0
  -15.8459   90.6518   32.5717 H   0  0  0  0  0  0  0  0  0  0  0  0
  -14.4726   89.9133   30.8894 H   0  0  0  0  0  0  0  0  0  0  0  0
  -13.4780   92.4914   33.1924 H   0  0  0  0  0  0  0  0  0  0  0  0
  -16.1750   92.9943   32.3707 H   0  0  0  0  0  0  0  0  0  0  0  0
  -14.9036   93.2777   35.0781 H   0  0  0  0  0  0  0  0  0  0  0  0
  -15.8249   89.8833   34.6808 H   0  0  0  0  0  0  0  0  0  0  0  0
  -14.6409   87.8371   35.3225 H   0  0  0  0  0  0  0  0  0  0  0  0
  -14.9222   88.9181   36.7293 H   0  0  0  0  0  0  0  0  0  0  0  0
  -12.7330   89.6496   36.4490 H   0  0  0  0  0  0  0  0  0  0  0  0
  -16.7017   93.4074   36.1224 H   0  0  0  0  0  0  0  0  0  0  0  0
  -18.8306   93.1072   33.9500 H   0  0  0  0  0  0  0  0  0  0  0  0
  -16.8734   94.1394   33.2921 H   0  0  0  0  0  0  0  0  0  0  0  0
  -18.6350   95.2342   36.1560 H   0  0  0  0  0  0  0  0  0  0  0  0
  -20.6214   94.5238   34.2117 H   0  0  0  0  0  0  0  0  0  0  0  0
  -20.5316   94.1614   37.1890 H   0  0  0  0  0  0  0  0  0  0  0  0
  -18.8421   91.2759   35.5960 H   0  0  0  0  0  0  0  0  0  0  0  0
  -17.0022   91.5771   38.0214 H   0  0  0  0  0  0  0  0  0  0  0  0
  -16.5974   90.5312   36.6182 H   0  0  0  0  0  0  0  0  0  0  0  0
  -18.9851   90.3723   38.1911 H   0  0  0  0  0  0  0  0  0  0  0  0
  -22.2306   93.3228   37.1486 H   0  0  0  0  0  0  0  0  0  0  0  0
  -23.0481   93.0853   34.2136 H   0  0  0  0  0  0  0  0  0  0  0  0
  -21.9507   95.0227   34.8290 H   0  0  0  0  0  0  0  0  0  0  0  0
  -24.7331   93.8265   36.6399 H   0  0  0  0  0  0  0  0  0  0  0  0
  -25.3267   93.4330   33.8755 H   0  0  0  0  0  0  0  0  0  0  0  0
  -25.9142   91.7235   36.2593 H   0  0  0  0  0  0  0  0  0  0  0  0
  -22.4781   90.8929   35.3257 H   0  0  0  0  0  0  0  0  0  0  0  0
  -21.7769   91.1408   38.2973 H   0  0  0  0  0  0  0  0  0  0  0  0
  -20.6382   90.7251   36.9717 H   0  0  0  0  0  0  0  0  0  0  0  0
  -23.0049   89.2666   37.6647 H   0  0  0  0  0  0  0  0  0  0  0  0
  -26.7073   90.4146   35.1137 H   0  0  0  0  0  0  0  0  0  0  0  0
  -25.9004   91.2083   32.2770 H   0  0  0  0  0  0  0  0  0  0  0  0
  -26.5593   92.8898   33.7081 H   0  0  0  0  0  0  0  0  0  0  0  0
  -28.6290   90.1517   33.1116 H   0  0  0  0  0  0  0  0  0  0  0  0
  -27.3634   90.6783   30.5973 H   0  0  0  0  0  0  0  0  0  0  0  0
  -28.1604   88.0711   32.0446 H   0  0  0  0  0  0  0  0  0  0  0  0
  -26.7733   88.9226   30.3854 H   0  0  0  0  0  0  0  0  0  0  0  0
  -24.8222   89.0276   33.1335 H   0  0  0  0  0  0  0  0  0  0  0  0
  -25.7894   87.9646   35.8077 H   0  0  0  0  0  0  0  0  0  0  0  0
  -24.3699   89.0608   35.7080 H   0  0  0  0  0  0  0  0  0  0  0  0
  -23.7911   86.8195   35.4877 H   0  0  0  0  0  0  0  0  0  0  0  0
  1  2  1  0  0  0  0
  1 46  1  0  0  0  0
  2  3  1  0  0  0  0
  2  8  1  0  0  0  0
  2 47  1  1  0  0  0
  3  4  1  0  0  0  0
  3  5  1  0  0  0  0
  3 48  1  6  0  0  0
  4 49  1  0  0  0  0
  5  6  1  0  0  0  0
  5  7  1  0  0  0  0
  5 50  1  1  0  0  0
  6 51  1  0  0  0  0
  7  9  1  0  0  0  0
  7 12  1  0  0  0  0
  7 52  1  1  0  0  0
  8  9  1  0  0  0  0
  8 10  1  0  0  0  0
  8 53  1  6  0  0  0
 10 11  1  0  0  0  0
 10 54  1  0  0  0  0
 10 55  1  0  0  0  0
 11 56  1  0  0  0  0
 12 13  1  0  0  0  0
 13 14  1  0  0  0  0
 13 19  1  0  0  0  0
 13 57  1  1  0  0  0
 14 15  1  0  0  0  0
 14 16  1  0  0  0  0
 14 58  1  6  0  0  0
 15 59  1  0  0  0  0
 16 17  1  0  0  0  0
 16 18  1  0  0  0  0
 16 60  1  1  0  0  0
 17 61  1  0  0  0  0
 18 20  1  0  0  0  0
 18 23  1  0  0  0  0
 18 62  1  1  0  0  0
 19 20  1  0  0  0  0
 19 21  1  0  0  0  0
 19 63  1  6  0  0  0
 21 22  1  0  0  0  0
 21 64  1  0  0  0  0
 21 65  1  0  0  0  0
 22 66  1  0  0  0  0
 23 24  1  0  0  0  0
 24 25  1  0  0  0  0
 24 30  1  0  0  0  0
 24 67  1  1  0  0  0
 25 26  1  0  0  0  0
 25 27  1  0  0  0  0
 25 68  1  6  0  0  0
 26 69  1  0  0  0  0
 27 28  1  0  0  0  0
 27 29  1  0  0  0  0
 27 70  1  1  0  0  0
 28 71  1  0  0  0  0
 29 31  1  0  0  0  0
 29 34  1  0  0  0  0
 29 72  1  1  0  0  0
 30 31  1  0  0  0  0
 30 32  1  0  0  0  0
 30 73  1  6  0  0  0
 32 33  1  0  0  0  0
 32 74  1  0  0  0  0
 32 75  1  0  0  0  0
 33 76  1  0  0  0  0
 34 35  1  0  0  0  0
 35 36  1  0  0  0  0
 35 42  1  0  0  0  0
 35 77  1  1  0  0  0
 36 37  1  0  0  0  0
 36 38  1  0  0  0  0
 36 78  1  6  0  0  0
 37 79  1  0  0  0  0
 38 39  1  0  0  0  0
 38 40  1  0  0  0  0
 38 80  1  1  0  0  0
 39 81  1  0  0  0  0
 40 41  1  0  0  0  0
 40 43  1  0  0  0  0
 40 82  1  6  0  0  0
 41 83  1  0  0  0  0
 42 43  1  0  0  0  0
 42 44  1  0  0  0  0
 42 84  1  6  0  0  0
 44 45  1  0  0  0  0
 44 85  1  0  0  0  0
 44 86  1  0  0  0  0
 45 87  1  0  0  0  0
M  END
