4feq_ligand
 OpenBabel08222323353D

 66 69  0  0  0  0  0  0  0  0999 V2000
    8.7970  -10.5110   15.1260 N   0  0  0  0  0  0  0  0  0  0  0  0
   10.7970  -11.4130   14.3210 N   0  0  0  0  0  0  0  0  0  0  0  0
    9.0110  -14.1410   16.1580 C   0  0  0  0  0  0  0  0  0  0  0  0
    9.9580  -10.3630   14.4460 C   0  0  0  0  0  0  0  0  0  0  0  0
    6.3190  -10.6840   16.2460 C   0  0  0  0  0  0  0  0  0  0  0  0
    4.9120  -11.2080   15.9910 C   0  0  0  0  0  0  0  0  0  0  0  0
    6.2640   -9.9300   17.5610 C   0  0  0  0  0  0  0  0  0  0  0  0
    9.7480   -7.9190   14.4580 C   0  0  0  0  0  0  0  0  0  0  0  0
    9.6320  -16.4100   18.3200 C   0  0  0  0  0  0  0  0  0  0  0  0
    9.2990  -17.8700   18.6580 C   0  0  0  0  0  0  0  0  0  0  0  0
    9.9370  -19.5080   20.3960 C   0  0  0  0  0  0  0  0  0  0  0  0
   10.5110  -17.2360   20.7870 C   0  0  0  0  0  0  0  0  0  0  0  0
    6.7190   -4.1480   14.3590 C   0  0  0  0  0  0  0  0  0  0  0  0
   10.5070  -19.5720   21.7990 C   0  0  0  0  0  0  0  0  0  0  0  0
   11.0320  -18.0580   22.0480 C   0  0  0  0  0  0  0  0  0  0  0  0
    9.5430  -20.5120   19.8020 O   0  0  0  0  0  0  0  0  0  0  0  0
    9.9080  -18.2600   19.9390 N   0  0  0  0  0  0  0  0  0  0  0  0
   10.1110  -16.3360   16.8790 C   0  0  0  0  0  0  0  0  0  0  0  0
   10.0460  -14.9700   16.3700 N   0  0  0  0  0  0  0  0  0  0  0  0
    7.8570  -14.4400   16.4350 O   0  0  0  0  0  0  0  0  0  0  0  0
    9.3090  -12.7850   15.5710 C   0  0  0  0  0  0  0  0  0  0  0  0
    8.4480  -11.6940   15.6930 C   0  0  0  0  0  0  0  0  0  0  0  0
    7.2760  -11.7760   16.3530 N   0  0  0  0  0  0  0  0  0  0  0  0
    5.0630  -10.4700   18.3230 C   0  0  0  0  0  0  0  0  0  0  0  0
    4.1390  -11.1120   17.2980 C   0  0  0  0  0  0  0  0  0  0  0  0
   10.4900  -12.6030   14.8570 C   0  0  0  0  0  0  0  0  0  0  0  0
   10.2880   -9.1690   13.9110 N   0  0  0  0  0  0  0  0  0  0  0  0
    8.6330   -7.3560   13.5780 C   0  0  0  0  0  0  0  0  0  0  0  0
    7.7060   -6.3600   14.2680 C   0  0  0  0  0  0  0  0  0  0  0  0
    6.9420   -6.7120   15.3800 C   0  0  0  0  0  0  0  0  0  0  0  0
    6.0970   -5.7610   15.9520 C   0  0  0  0  0  0  0  0  0  0  0  0
    6.0060   -4.5230   15.4340 N   0  0  0  0  0  0  0  0  0  0  0  0
    7.5750   -5.0680   13.7550 C   0  0  0  0  0  0  0  0  0  0  0  0
    6.6230  -10.0104   15.4312 H   0  0  0  0  0  0  0  0  0  0  0  0
    4.9568  -12.2555   15.6583 H   0  0  0  0  0  0  0  0  0  0  0  0
    4.4195  -10.5988   15.2188 H   0  0  0  0  0  0  0  0  0  0  0  0
    6.1425   -8.8526   17.3757 H   0  0  0  0  0  0  0  0  0  0  0  0
    7.1862  -10.1016   18.1356 H   0  0  0  0  0  0  0  0  0  0  0  0
   10.5588   -7.1786   14.5243 H   0  0  0  0  0  0  0  0  0  0  0  0
    9.3458   -8.1134   15.4632 H   0  0  0  0  0  0  0  0  0  0  0  0
   10.4238  -16.0467   18.9916 H   0  0  0  0  0  0  0  0  0  0  0  0
    8.7331  -15.7881   18.4428 H   0  0  0  0  0  0  0  0  0  0  0  0
    9.6858  -18.5222   17.8611 H   0  0  0  0  0  0  0  0  0  0  0  0
    8.2072  -17.9843   18.7278 H   0  0  0  0  0  0  0  0  0  0  0  0
   11.3447  -16.7383   20.2701 H   0  0  0  0  0  0  0  0  0  0  0  0
    9.7654  -16.4852   21.0876 H   0  0  0  0  0  0  0  0  0  0  0  0
    6.6299   -3.1418   13.9657 H   0  0  0  0  0  0  0  0  0  0  0  0
   11.3362  -20.2925   21.8565 H   0  0  0  0  0  0  0  0  0  0  0  0
    9.7312  -19.8466   22.5289 H   0  0  0  0  0  0  0  0  0  0  0  0
   10.6105  -17.6495   22.9783 H   0  0  0  0  0  0  0  0  0  0  0  0
   12.1304  -18.0323   22.1008 H   0  0  0  0  0  0  0  0  0  0  0  0
    9.4746  -16.9815   16.2559 H   0  0  0  0  0  0  0  0  0  0  0  0
   11.1518  -16.6884   16.8284 H   0  0  0  0  0  0  0  0  0  0  0  0
   10.9362  -14.5792   16.1359 H   0  0  0  0  0  0  0  0  0  0  0  0
    7.0594  -12.6030   16.9275 H   0  0  0  0  0  0  0  0  0  0  0  0
    4.5429   -9.6497   18.8392 H   0  0  0  0  0  0  0  0  0  0  0  0
    5.3885  -11.2190   19.0599 H   0  0  0  0  0  0  0  0  0  0  0  0
    3.8427  -12.1163   17.6350 H   0  0  0  0  0  0  0  0  0  0  0  0
    3.2411  -10.4918   17.1598 H   0  0  0  0  0  0  0  0  0  0  0  0
   11.1720  -13.4363   14.7324 H   0  0  0  0  0  0  0  0  0  0  0  0
   10.9293   -9.1344   13.1057 H   0  0  0  0  0  0  0  0  0  0  0  0
    8.0227   -8.1984   13.2203 H   0  0  0  0  0  0  0  0  0  0  0  0
    9.0988   -6.8500   12.7195 H   0  0  0  0  0  0  0  0  0  0  0  0
    7.0039   -7.7117   15.7946 H   0  0  0  0  0  0  0  0  0  0  0  0
    5.5074   -6.0224   16.8232 H   0  0  0  0  0  0  0  0  0  0  0  0
    8.1440   -4.7776   12.8792 H   0  0  0  0  0  0  0  0  0  0  0  0
  1 22  1  0  0  0  0
  2 26  2  0  0  0  0
  3 19  1  0  0  0  0
  3 20  2  0  0  0  0
  4  1  2  0  0  0  0
  4  2  1  0  0  0  0
  5  6  1  0  0  0  0
  5  7  1  0  0  0  0
  5 34  1  0  0  0  0
  6 25  1  0  0  0  0
  6 35  1  0  0  0  0
  6 36  1  0  0  0  0
  7 24  1  0  0  0  0
  7 37  1  0  0  0  0
  7 38  1  0  0  0  0
  8 27  1  0  0  0  0
  8 39  1  0  0  0  0
  8 40  1  0  0  0  0
  9 10  1  0  0  0  0
  9 41  1  0  0  0  0
  9 42  1  0  0  0  0
 10 17  1  0  0  0  0
 10 43  1  0  0  0  0
 10 44  1  0  0  0  0
 11 14  1  0  0  0  0
 11 16  2  0  0  0  0
 12 15  1  0  0  0  0
 12 45  1  0  0  0  0
 12 46  1  0  0  0  0
 13 32  2  0  0  0  0
 13 47  1  0  0  0  0
 14 48  1  0  0  0  0
 14 49  1  0  0  0  0
 15 14  1  0  0  0  0
 15 50  1  0  0  0  0
 15 51  1  0  0  0  0
 17 11  1  0  0  0  0
 17 12  1  0  0  0  0
 18  9  1  0  0  0  0
 18 52  1  0  0  0  0
 18 53  1  0  0  0  0
 19 18  1  0  0  0  0
 19 54  1  0  0  0  0
 21  3  1  0  0  0  0
 22 21  2  0  0  0  0
 22 23  1  0  0  0  0
 23  5  1  0  0  0  0
 23 55  1  0  0  0  0
 24 25  1  0  0  0  0
 24 56  1  0  0  0  0
 24 57  1  0  0  0  0
 25 58  1  0  0  0  0
 25 59  1  0  0  0  0
 26 21  1  0  0  0  0
 26 60  1  0  0  0  0
 27  4  1  0  0  0  0
 27 61  1  0  0  0  0
 28  8  1  0  0  0  0
 28 62  1  0  0  0  0
 28 63  1  0  0  0  0
 29 28  1  0  0  0  0
 29 30  1  0  0  0  0
 29 33  2  0  0  0  0
 30 31  2  0  0  0  0
 30 64  1  0  0  0  0
 31 32  1  0  0  0  0
 31 65  1  0  0  0  0
 33 13  1  0  0  0  0
 33 66  1  0  0  0  0
M  END
