4fgy_ligand
 OpenBabel08222323353D

215216  0  0  1  0  0  0  0  0999 V2000
  -26.0220  -15.0080  -19.5480 N   0  3  0  0  0  0  0  0  0  0  0  0
  -26.6630  -15.8550  -18.5570 C   0  0  2  0  0  0  0  0  0  0  0  0
  -26.1420  -17.2600  -18.7190 C   0  0  0  0  0  0  0  0  0  0  0  0
  -26.6860  -18.0450  -19.4830 O   0  0  0  0  0  0  0  0  0  0  0  0
  -28.1910  -15.7980  -18.6710 C   0  0  0  0  0  0  0  0  0  0  0  0
  -28.7300  -14.7130  -19.6060 C   0  0  0  0  0  0  0  0  0  0  0  0
  -28.2190  -13.3050  -19.3140 C   0  0  0  0  0  0  0  0  0  0  0  0
  -26.9950  -12.9930  -20.0440 N   0  0  0  0  0  0  0  0  0  0  0  0
  -26.6450  -13.5440  -21.2000 C   0  0  0  0  0  3  0  0  0  0  0  0
  -27.4350  -14.4240  -21.7720 N   0  0  0  0  0  0  0  0  0  0  0  0
  -25.5110  -13.2240  -21.7870 N   0  0  0  0  0  0  0  0  0  0  0  0
  -25.0690  -17.5530  -17.9970 N   0  0  0  0  0  0  0  0  0  0  0  0
  -24.4080  -16.5460  -17.1700 C   0  0  2  0  0  0  0  0  0  0  0  0
  -25.0600  -15.9920  -15.9450 C   0  0  0  0  0  0  0  0  0  0  0  0
  -25.1510  -14.7760  -15.7780 O   0  0  0  0  0  0  0  0  0  0  0  0
  -23.8850  -15.4240  -18.0050 C   0  0  0  0  0  0  0  0  0  0  0  0
  -22.9160  -15.8700  -19.0350 C   0  0  0  0  0  0  0  0  0  0  0  0
  -22.9720  -17.0680  -19.5720 N   0  0  0  0  0  0  0  0  0  0  0  0
  -21.8610  -15.2350  -19.6130 C   0  0  0  0  0  0  0  0  0  0  0  0
  -22.0030  -17.1980  -20.4570 C   0  0  0  0  0  0  0  0  0  0  0  0
  -21.3270  -16.0760  -20.4810 N   0  0  0  0  0  0  0  0  0  0  0  0
  -25.4470  -16.8530  -15.0280 N   0  0  0  0  0  0  0  0  0  0  0  0
  -26.2550  -16.4110  -13.8810 C   0  0  2  0  0  0  0  0  0  0  0  0
  -25.4650  -15.6340  -12.8180 C   0  0  0  0  0  0  0  0  0  0  0  0
  -25.9350  -14.5980  -12.3490 O   0  0  0  0  0  0  0  0  0  0  0  0
  -27.0490  -17.5710  -13.2410 C   0  0  0  0  0  0  0  0  0  0  0  0
  -27.8750  -18.4330  -14.2010 C   0  0  0  0  0  0  0  0  0  0  0  0
  -27.1740  -19.7410  -14.6060 C   0  0  0  0  0  0  0  0  0  0  0  0
  -25.9930  -19.5230  -15.5600 C   0  0  0  0  0  0  0  0  0  0  0  0
  -25.1860  -20.7360  -15.8800 N   0  3  0  0  0  0  0  0  0  0  0  0
  -24.2770  -16.1080  -12.4430 N   0  0  0  0  0  0  0  0  0  0  0  0
  -23.4650  -15.4170  -11.4170 C   0  0  2  0  0  0  0  0  0  0  0  0
  -22.9490  -14.0210  -11.7950 C   0  0  0  0  0  0  0  0  0  0  0  0
  -23.1600  -13.0630  -11.0480 O   0  0  0  0  0  0  0  0  0  0  0  0
  -22.3140  -16.2790  -10.9410 C   0  0  2  0  0  0  0  0  0  0  0  0
  -22.8210  -17.7130  -10.7420 C   0  0  0  0  0  0  0  0  0  0  0  0
  -21.7370  -15.6620   -9.6780 C   0  0  0  0  0  0  0  0  0  0  0  0
  -21.8330  -18.6860  -10.1360 C   0  0  0  0  0  0  0  0  0  0  0  0
  -22.2720  -13.8950  -12.9370 N   0  0  0  0  0  0  0  0  0  0  0  0
  -22.1340  -12.5860  -13.5730 C   0  0  2  0  0  0  0  0  0  0  0  0
  -23.5510  -12.2070  -13.9170 C   0  0  0  0  0  0  0  0  0  0  0  0
  -24.2960  -13.0320  -14.4690 O   0  0  0  0  0  0  0  0  0  0  0  0
  -21.3540  -12.6900  -14.8790 C   0  0  0  0  0  0  0  0  0  0  0  0
  -19.8460  -12.9090  -14.9360 C   0  0  0  0  0  0  0  0  0  0  0  0
  -19.5380  -13.5130  -16.2890 C   0  0  0  0  0  0  0  0  0  0  0  0
  -19.0770  -11.6120  -14.7470 C   0  0  0  0  0  0  0  0  0  0  0  0
  -23.9490  -10.9800  -13.6090 N   0  0  0  0  0  0  0  0  0  0  0  0
  -25.3590  -10.6310  -13.7110 C   0  0  2  0  0  0  0  0  0  0  0  0
  -25.6940  -10.1780  -12.3610 C   0  0  0  0  0  0  0  0  0  0  0  0
  -26.0110   -9.0150  -12.1610 O   0  0  0  0  0  0  0  0  0  0  0  0
  -26.1850  -11.8770  -13.9460 C   0  0  0  0  0  0  0  0  0  0  0  0
  -27.1260  -11.7930  -15.1090 C   0  0  0  0  0  0  0  0  0  0  0  0
  -26.7550  -12.1370  -16.3560 N   0  0  0  0  0  0  0  0  0  0  0  0
  -28.4760  -11.4530  -15.1740 C   0  0  0  0  0  0  0  0  0  0  0  0
  -27.8020  -11.9990  -17.1850 C   0  0  0  0  0  0  0  0  0  0  0  0
  -28.8570  -11.5780  -16.4610 N   0  0  0  0  0  0  0  0  0  0  0  0
  -25.6270  -11.1190  -11.4140 N   0  0  0  0  0  0  0  0  0  0  0  0
  -25.8780  -10.8030  -10.0140 C   0  0  2  0  0  0  0  0  0  0  0  0
  -24.7580   -9.8900   -9.5740 C   0  0  0  0  0  0  0  0  0  0  0  0
  -25.0080   -8.8530   -8.9410 O   0  0  0  0  0  0  0  0  0  0  0  0
  -25.9560  -12.0630   -9.1390 C   0  0  0  0  0  0  0  0  0  0  0  0
  -26.6890  -13.2390   -9.7760 C   0  0  0  0  0  0  0  0  0  0  0  0
  -28.1580  -12.9370  -10.0810 C   0  0  0  0  0  0  0  0  0  0  0  0
  -28.6090  -13.5240  -11.3510 N   0  0  0  0  0  0  0  0  0  0  0  0
  -29.0180  -14.7860  -11.5120 C   0  0  0  0  0  3  0  0  0  0  0  0
  -29.0410  -15.6400  -10.4850 N   0  0  0  0  0  0  0  0  0  0  0  0
  -29.4000  -15.2010  -12.7150 N   0  0  0  0  0  0  0  0  0  0  0  0
  -23.5300  -10.2590   -9.9600 N   0  0  0  0  0  0  0  0  0  0  0  0
  -22.3480   -9.4260   -9.7250 C   0  0  2  0  0  0  0  0  0  0  0  0
  -22.4370   -8.1370  -10.5170 C   0  0  0  0  0  0  0  0  0  0  0  0
  -21.8310   -7.1390  -10.1520 O   0  0  0  0  0  0  0  0  0  0  0  0
  -21.0620  -10.1620  -10.1150 C   0  0  0  0  0  0  0  0  0  0  0  0
  -20.6870  -11.5120   -9.4980 C   0  0  0  0  0  0  0  0  0  0  0  0
  -19.5220  -12.0700  -10.2970 C   0  0  0  0  0  0  0  0  0  0  0  0
  -20.3330  -11.4200   -8.0240 C   0  0  0  0  0  0  0  0  0  0  0  0
  -23.1800   -8.1680  -11.6160 N   0  0  0  0  0  0  0  0  0  0  0  0
  -23.3820   -6.9570  -12.4080 C   0  0  2  0  0  0  0  0  0  0  0  0
  -24.5090   -6.0990  -11.8620 C   0  0  0  0  0  0  0  0  0  0  0  0
  -24.3670   -4.8840  -11.7820 O   0  0  0  0  0  0  0  0  0  0  0  0
  -23.6180   -7.2900  -13.8760 C   0  0  0  0  0  0  0  0  0  0  0  0
  -22.3140   -7.5770  -14.6050 C   0  0  0  0  0  0  0  0  0  0  0  0
  -22.5780   -8.3790  -15.8630 C   0  0  0  0  0  0  0  0  0  0  0  0
  -21.5860   -6.2820  -14.9280 C   0  0  0  0  0  0  0  0  0  0  0  0
  -25.6150   -6.7430  -11.4840 N   0  0  0  0  0  0  0  0  0  0  0  0
  -26.7730   -6.0680  -10.9020 C   0  0  2  0  0  0  0  0  0  0  0  0
  -26.4270   -5.2680   -9.6410 C   0  0  0  0  0  0  0  0  0  0  0  0
  -26.9830   -4.1860   -9.4320 O   0  0  0  0  0  0  0  0  0  0  0  0
  -27.9120   -7.0640  -10.6550 C   0  0  0  0  0  0  0  0  0  0  0  0
  -28.8170   -7.2530  -11.8740 C   0  0  0  0  0  0  0  0  0  0  0  0
  -29.2130   -8.7000  -12.1230 C   0  0  0  0  0  0  0  0  0  0  0  0
  -29.8150   -9.3580  -11.2700 O   0  0  0  0  0  0  0  0  0  0  0  0
  -28.8720   -9.2030  -13.3060 N   0  0  0  0  0  0  0  0  0  0  0  0
  -25.5180   -5.8010   -8.8200 N   0  0  0  0  0  0  0  0  0  0  0  0
  -24.8730   -5.0470   -7.7280 C   0  0  2  0  0  0  0  0  0  0  0  0
  -23.8160   -5.8850   -7.0080 C   0  0  0  0  0  0  0  0  0  0  0  0
  -22.7012   -5.3883   -6.6949 O   0  5  0  0  0  0  0  0  0  0  0  0
  -25.8910   -4.5050   -6.7130 C   0  0  0  0  0  0  0  0  0  0  0  0
  -25.4800   -3.1850   -6.0670 C   0  0  0  0  0  0  0  0  0  0  0  0
  -25.5860   -1.9780   -7.0040 C   0  0  0  0  0  0  0  0  0  0  0  0
  -25.6430   -2.1520   -8.2410 O   0  5  0  0  0  0  0  0  0  0  0  0
  -25.6070   -0.8330   -6.5040 O   0  0  0  0  0  0  0  0  0  0  0  0
  -24.0629   -7.0875   -6.7242 O   0  0  0  0  0  0  0  0  0  0  0  0
  -26.3607  -14.0634  -19.4523 H   0  0  0  0  0  0  0  0  0  0  0  0
  -26.2366  -15.3499  -20.4716 H   0  0  0  0  0  0  0  0  0  0  0  0
  -25.0239  -15.0229  -19.4077 H   0  0  0  0  0  0  0  0  0  0  0  0
  -26.3853  -15.4934  -17.5559 H   0  0  0  0  0  0  0  0  0  0  0  0
  -28.6016  -15.6176  -17.6666 H   0  0  0  0  0  0  0  0  0  0  0  0
  -28.5421  -16.7725  -19.0411 H   0  0  0  0  0  0  0  0  0  0  0  0
  -29.8268  -14.7031  -19.5224 H   0  0  0  0  0  0  0  0  0  0  0  0
  -28.4430  -14.9746  -20.6352 H   0  0  0  0  0  0  0  0  0  0  0  0
  -28.0185  -13.2189  -18.2359 H   0  0  0  0  0  0  0  0  0  0  0  0
  -28.9956  -12.5810  -19.6016 H   0  0  0  0  0  0  0  0  0  0  0  0
  -26.3574  -12.2960  -19.6335 H   0  0  0  0  0  0  0  0  0  0  0  0
  -27.1648  -14.8524  -22.6689 H   0  0  0  0  0  0  0  0  0  0  0  0
  -28.3246  -14.6856  -21.3236 H   0  0  0  0  0  0  0  0  0  0  0  0
  -24.8814  -12.5356  -21.3504 H   0  0  0  0  0  0  0  0  0  0  0  0
  -25.2533  -13.6620  -22.6829 H   0  0  0  0  0  0  0  0  0  0  0  0
  -24.7041  -18.4838  -18.0190 H   0  0  0  0  0  0  0  0  0  0  0  0
  -23.5229  -17.0716  -16.7823 H   0  0  0  0  0  0  0  0  0  0  0  0
  -23.3859  -14.6992  -17.3450 H   0  0  0  0  0  0  0  0  0  0  0  0
  -24.7331  -14.9376  -18.5091 H   0  0  0  0  0  0  0  0  0  0  0  0
  -21.5202  -14.2228  -19.4002 H   0  0  0  0  0  0  0  0  0  0  0  0
  -21.8006  -18.0814  -21.0608 H   0  0  0  0  0  0  0  0  0  0  0  0
  -20.5116  -15.8811  -21.0794 H   0  0  0  0  0  0  0  0  0  0  0  0
  -25.1896  -17.8157  -15.1117 H   0  0  0  0  0  0  0  0  0  0  0  0
  -26.9977  -15.7083  -14.2868 H   0  0  0  0  0  0  0  0  0  0  0  0
  -27.7379  -17.1384  -12.5006 H   0  0  0  0  0  0  0  0  0  0  0  0
  -26.3300  -18.2297  -12.7320 H   0  0  0  0  0  0  0  0  0  0  0  0
  -28.0741  -17.8481  -15.1111 H   0  0  0  0  0  0  0  0  0  0  0  0
  -28.8273  -18.6851  -13.7115 H   0  0  0  0  0  0  0  0  0  0  0  0
  -27.9086  -20.3923  -15.1022 H   0  0  0  0  0  0  0  0  0  0  0  0
  -26.8019  -20.2345  -13.6961 H   0  0  0  0  0  0  0  0  0  0  0  0
  -25.3214  -18.7817  -15.1023 H   0  0  0  0  0  0  0  0  0  0  0  0
  -26.3910  -19.1234  -16.5044 H   0  0  0  0  0  0  0  0  0  0  0  0
  -24.4398  -20.4865  -16.5100 H   0  0  0  0  0  0  0  0  0  0  0  0
  -25.7765  -21.4271  -16.3156 H   0  0  0  0  0  0  0  0  0  0  0  0
  -24.7964  -21.1140  -15.0307 H   0  0  0  0  0  0  0  0  0  0  0  0
  -23.9281  -16.9459  -12.8627 H   0  0  0  0  0  0  0  0  0  0  0  0
  -24.1337  -15.2716  -10.5558 H   0  0  0  0  0  0  0  0  0  0  0  0
  -21.5279  -16.2934  -11.7103 H   0  0  0  0  0  0  0  0  0  0  0  0
  -23.1191  -18.1045  -11.7258 H   0  0  0  0  0  0  0  0  0  0  0  0
  -23.7002  -17.6710  -10.0823 H   0  0  0  0  0  0  0  0  0  0  0  0
  -21.3947  -14.6390   -9.8931 H   0  0  0  0  0  0  0  0  0  0  0  0
  -20.8872  -16.2672   -9.3294 H   0  0  0  0  0  0  0  0  0  0  0  0
  -22.5113  -15.6330   -8.8972 H   0  0  0  0  0  0  0  0  0  0  0  0
  -22.3040  -19.6756  -10.0415 H   0  0  0  0  0  0  0  0  0  0  0  0
  -21.5290  -18.3281   -9.1413 H   0  0  0  0  0  0  0  0  0  0  0  0
  -20.9479  -18.7617  -10.7848 H   0  0  0  0  0  0  0  0  0  0  0  0
  -21.8566  -14.7001  -13.3605 H   0  0  0  0  0  0  0  0  0  0  0  0
  -21.6624  -11.8581  -12.8965 H   0  0  0  0  0  0  0  0  0  0  0  0
  -21.5434  -11.7509  -15.4195 H   0  0  0  0  0  0  0  0  0  0  0  0
  -21.8020  -13.5284  -15.4324 H   0  0  0  0  0  0  0  0  0  0  0  0
  -19.5505  -13.6112  -14.1426 H   0  0  0  0  0  0  0  0  0  0  0  0
  -18.4555  -13.6887  -16.3742 H   0  0  0  0  0  0  0  0  0  0  0  0
  -19.8607  -12.8215  -17.0813 H   0  0  0  0  0  0  0  0  0  0  0  0
  -20.0738  -14.4678  -16.3949 H   0  0  0  0  0  0  0  0  0  0  0  0
  -19.3120  -11.1869  -13.7601 H   0  0  0  0  0  0  0  0  0  0  0  0
  -19.3649  -10.8973  -15.5320 H   0  0  0  0  0  0  0  0  0  0  0  0
  -17.9975  -11.8129  -14.8120 H   0  0  0  0  0  0  0  0  0  0  0  0
  -23.2834  -10.2971  -13.3079 H   0  0  0  0  0  0  0  0  0  0  0  0
  -25.5445   -9.8678  -14.4811 H   0  0  0  0  0  0  0  0  0  0  0  0
  -26.7769  -12.0720  -13.0396 H   0  0  0  0  0  0  0  0  0  0  0  0
  -25.4965  -12.7166  -14.1221 H   0  0  0  0  0  0  0  0  0  0  0  0
  -29.1055  -11.1441  -14.3408 H   0  0  0  0  0  0  0  0  0  0  0  0
  -27.7989  -12.1936  -18.2565 H   0  0  0  0  0  0  0  0  0  0  0  0
  -29.7989  -11.3837  -16.8297 H   0  0  0  0  0  0  0  0  0  0  0  0
  -25.4002  -12.0583  -11.6715 H   0  0  0  0  0  0  0  0  0  0  0  0
  -26.8359  -10.2687   -9.9310 H   0  0  0  0  0  0  0  0  0  0  0  0
  -26.4762  -11.8002   -8.2061 H   0  0  0  0  0  0  0  0  0  0  0  0
  -24.9294  -12.3838   -8.9086 H   0  0  0  0  0  0  0  0  0  0  0  0
  -26.6435  -14.0949   -9.0865 H   0  0  0  0  0  0  0  0  0  0  0  0
  -26.1824  -13.4990  -10.7171 H   0  0  0  0  0  0  0  0  0  0  0  0
  -28.2892  -11.8461  -10.1320 H   0  0  0  0  0  0  0  0  0  0  0  0
  -28.7765  -13.3430   -9.2671 H   0  0  0  0  0  0  0  0  0  0  0  0
  -28.6098  -12.9150  -12.1817 H   0  0  0  0  0  0  0  0  0  0  0  0
  -29.3594  -16.6091  -10.6281 H   0  0  0  0  0  0  0  0  0  0  0  0
  -28.7403  -15.3294   -9.5501 H   0  0  0  0  0  0  0  0  0  0  0  0
  -29.3857  -14.5499  -13.5130 H   0  0  0  0  0  0  0  0  0  0  0  0
  -29.7104  -16.1738  -12.8496 H   0  0  0  0  0  0  0  0  0  0  0  0
  -23.4155  -11.1362  -10.4262 H   0  0  0  0  0  0  0  0  0  0  0  0
  -22.3034   -9.1819   -8.6534 H   0  0  0  0  0  0  0  0  0  0  0  0
  -20.2324   -9.4768   -9.8865 H   0  0  0  0  0  0  0  0  0  0  0  0
  -21.1157  -10.3233  -11.2018 H   0  0  0  0  0  0  0  0  0  0  0  0
  -21.5466  -12.1912   -9.5964 H   0  0  0  0  0  0  0  0  0  0  0  0
  -19.2245  -13.0436   -9.8803 H   0  0  0  0  0  0  0  0  0  0  0  0
  -18.6728  -11.3730  -10.2426 H   0  0  0  0  0  0  0  0  0  0  0  0
  -19.8250  -12.1977  -11.3467 H   0  0  0  0  0  0  0  0  0  0  0  0
  -21.1896  -11.0142   -7.4659 H   0  0  0  0  0  0  0  0  0  0  0  0
  -19.4647  -10.7569   -7.8961 H   0  0  0  0  0  0  0  0  0  0  0  0
  -20.0884  -12.4222   -7.6424 H   0  0  0  0  0  0  0  0  0  0  0  0
  -23.6047   -9.0263  -11.9042 H   0  0  0  0  0  0  0  0  0  0  0  0
  -22.4567   -6.3655  -12.3453 H   0  0  0  0  0  0  0  0  0  0  0  0
  -24.1162   -6.4367  -14.3594 H   0  0  0  0  0  0  0  0  0  0  0  0
  -24.2651   -8.1771  -13.9407 H   0  0  0  0  0  0  0  0  0  0  0  0
  -21.6720   -8.1763  -13.9427 H   0  0  0  0  0  0  0  0  0  0  0  0
  -21.6263   -8.5778  -16.3776 H   0  0  0  0  0  0  0  0  0  0  0  0
  -23.2426   -7.8088  -16.5287 H   0  0  0  0  0  0  0  0  0  0  0  0
  -23.0567   -9.3328  -15.5961 H   0  0  0  0  0  0  0  0  0  0  0  0
  -21.4073   -5.7204  -13.9992 H   0  0  0  0  0  0  0  0  0  0  0  0
  -22.2005   -5.6762  -15.6102 H   0  0  0  0  0  0  0  0  0  0  0  0
  -20.6235   -6.5123  -15.4081 H   0  0  0  0  0  0  0  0  0  0  0  0
  -25.6531   -7.7349  -11.6048 H   0  0  0  0  0  0  0  0  0  0  0  0
  -27.1312   -5.3435  -11.6482 H   0  0  0  0  0  0  0  0  0  0  0  0
  -28.5238   -6.6961   -9.8182 H   0  0  0  0  0  0  0  0  0  0  0  0
  -27.4746   -8.0376  -10.3892 H   0  0  0  0  0  0  0  0  0  0  0  0
  -28.2855   -6.8807  -12.7622 H   0  0  0  0  0  0  0  0  0  0  0  0
  -29.7331   -6.6637  -11.7211 H   0  0  0  0  0  0  0  0  0  0  0  0
  -29.1032  -10.1492  -13.5324 H   0  0  0  0  0  0  0  0  0  0  0  0
  -28.3844   -8.6350  -13.9691 H   0  0  0  0  0  0  0  0  0  0  0  0
  -25.2619   -6.7586   -8.9521 H   0  0  0  0  0  0  0  0  0  0  0  0
  -24.3643   -4.1843   -8.1828 H   0  0  0  0  0  0  0  0  0  0  0  0
  -26.0192   -5.2542   -5.9178 H   0  0  0  0  0  0  0  0  0  0  0  0
  -26.8491   -4.3529   -7.2315 H   0  0  0  0  0  0  0  0  0  0  0  0
  -24.4360   -3.2732   -5.7321 H   0  0  0  0  0  0  0  0  0  0  0  0
  -26.1302   -3.0072   -5.1977 H   0  0  0  0  0  0  0  0  0  0  0  0
  1  2  1  0  0  0  0
  1103  1  0  0  0  0
  1104  1  0  0  0  0
  1105  1  0  0  0  0
  2  3  1  0  0  0  0
  2  5  1  0  0  0  0
  2106  1  1  0  0  0
  3  4  2  0  0  0  0
  3 12  1  0  0  0  0
  5  6  1  0  0  0  0
  5107  1  0  0  0  0
  5108  1  0  0  0  0
  6  7  1  0  0  0  0
  6109  1  0  0  0  0
  6110  1  0  0  0  0
  7  8  1  0  0  0  0
  7111  1  0  0  0  0
  7112  1  0  0  0  0
  8  9  1  0  0  0  0
  8113  1  0  0  0  0
  9 10  1  0  0  0  0
  9 11  1  0  0  0  0
 10114  1  0  0  0  0
 10115  1  0  0  0  0
 11116  1  0  0  0  0
 11117  1  0  0  0  0
 12 13  1  0  0  0  0
 12118  1  0  0  0  0
 13 14  1  0  0  0  0
 13 16  1  0  0  0  0
 13119  1  1  0  0  0
 14 15  2  0  0  0  0
 14 22  1  0  0  0  0
 16 17  1  0  0  0  0
 16120  1  0  0  0  0
 16121  1  0  0  0  0
 17 18  1  0  0  0  0
 17 19  2  0  0  0  0
 18 20  2  0  0  0  0
 19 21  1  0  0  0  0
 19122  1  0  0  0  0
 20 21  1  0  0  0  0
 20123  1  0  0  0  0
 21124  1  0  0  0  0
 22 23  1  0  0  0  0
 22125  1  0  0  0  0
 23 24  1  0  0  0  0
 23 26  1  0  0  0  0
 23126  1  6  0  0  0
 24 25  2  0  0  0  0
 24 31  1  0  0  0  0
 26 27  1  0  0  0  0
 26127  1  0  0  0  0
 26128  1  0  0  0  0
 27 28  1  0  0  0  0
 27129  1  0  0  0  0
 27130  1  0  0  0  0
 28 29  1  0  0  0  0
 28131  1  0  0  0  0
 28132  1  0  0  0  0
 29 30  1  0  0  0  0
 29133  1  0  0  0  0
 29134  1  0  0  0  0
 30135  1  0  0  0  0
 30136  1  0  0  0  0
 30137  1  0  0  0  0
 31 32  1  0  0  0  0
 31138  1  0  0  0  0
 32 33  1  0  0  0  0
 32 35  1  0  0  0  0
 32139  1  1  0  0  0
 33 34  2  0  0  0  0
 33 39  1  0  0  0  0
 35 36  1  0  0  0  0
 35 37  1  0  0  0  0
 35140  1  6  0  0  0
 36 38  1  0  0  0  0
 36141  1  0  0  0  0
 36142  1  0  0  0  0
 37143  1  0  0  0  0
 37144  1  0  0  0  0
 37145  1  0  0  0  0
 38146  1  0  0  0  0
 38147  1  0  0  0  0
 38148  1  0  0  0  0
 39 40  1  0  0  0  0
 39149  1  0  0  0  0
 40 41  1  0  0  0  0
 40 43  1  0  0  0  0
 40150  1  1  0  0  0
 41 42  2  0  0  0  0
 41 47  1  0  0  0  0
 43 44  1  0  0  0  0
 43151  1  0  0  0  0
 43152  1  0  0  0  0
 44 45  1  0  0  0  0
 44 46  1  0  0  0  0
 44153  1  0  0  0  0
 45154  1  0  0  0  0
 45155  1  0  0  0  0
 45156  1  0  0  0  0
 46157  1  0  0  0  0
 46158  1  0  0  0  0
 46159  1  0  0  0  0
 47 48  1  0  0  0  0
 47160  1  0  0  0  0
 48 49  1  0  0  0  0
 48 51  1  0  0  0  0
 48161  1  6  0  0  0
 49 50  2  0  0  0  0
 49 57  1  0  0  0  0
 51 52  1  0  0  0  0
 51162  1  0  0  0  0
 51163  1  0  0  0  0
 52 53  1  0  0  0  0
 52 54  2  0  0  0  0
 53 55  2  0  0  0  0
 54 56  1  0  0  0  0
 54164  1  0  0  0  0
 55 56  1  0  0  0  0
 55165  1  0  0  0  0
 56166  1  0  0  0  0
 57 58  1  0  0  0  0
 57167  1  0  0  0  0
 58 59  1  0  0  0  0
 58 61  1  0  0  0  0
 58168  1  1  0  0  0
 59 60  2  0  0  0  0
 59 68  1  0  0  0  0
 61 62  1  0  0  0  0
 61169  1  0  0  0  0
 61170  1  0  0  0  0
 62 63  1  0  0  0  0
 62171  1  0  0  0  0
 62172  1  0  0  0  0
 63 64  1  0  0  0  0
 63173  1  0  0  0  0
 63174  1  0  0  0  0
 64 65  1  0  0  0  0
 64175  1  0  0  0  0
 65 66  1  0  0  0  0
 65 67  1  0  0  0  0
 66176  1  0  0  0  0
 66177  1  0  0  0  0
 67178  1  0  0  0  0
 67179  1  0  0  0  0
 68 69  1  0  0  0  0
 68180  1  0  0  0  0
 69 70  1  0  0  0  0
 69 72  1  0  0  0  0
 69181  1  1  0  0  0
 70 71  2  0  0  0  0
 70 76  1  0  0  0  0
 72 73  1  0  0  0  0
 72182  1  0  0  0  0
 72183  1  0  0  0  0
 73 74  1  0  0  0  0
 73 75  1  0  0  0  0
 73184  1  0  0  0  0
 74185  1  0  0  0  0
 74186  1  0  0  0  0
 74187  1  0  0  0  0
 75188  1  0  0  0  0
 75189  1  0  0  0  0
 75190  1  0  0  0  0
 76 77  1  0  0  0  0
 76191  1  0  0  0  0
 77 78  1  0  0  0  0
 77 80  1  0  0  0  0
 77192  1  1  0  0  0
 78 79  2  0  0  0  0
 78 84  1  0  0  0  0
 80 81  1  0  0  0  0
 80193  1  0  0  0  0
 80194  1  0  0  0  0
 81 82  1  0  0  0  0
 81 83  1  0  0  0  0
 81195  1  0  0  0  0
 82196  1  0  0  0  0
 82197  1  0  0  0  0
 82198  1  0  0  0  0
 83199  1  0  0  0  0
 83200  1  0  0  0  0
 83201  1  0  0  0  0
 84 85  1  0  0  0  0
 84202  1  0  0  0  0
 85 86  1  0  0  0  0
 85 88  1  0  0  0  0
 85203  1  6  0  0  0
 86 87  2  0  0  0  0
 86 93  1  0  0  0  0
 88 89  1  0  0  0  0
 88204  1  0  0  0  0
 88205  1  0  0  0  0
 89 90  1  0  0  0  0
 89206  1  0  0  0  0
 89207  1  0  0  0  0
 90 91  2  0  0  0  0
 90 92  1  0  0  0  0
 92208  1  0  0  0  0
 92209  1  0  0  0  0
 93 94  1  0  0  0  0
 93210  1  0  0  0  0
 94 95  1  0  0  0  0
 94 97  1  0  0  0  0
 94211  1  6  0  0  0
 95 96  1  0  0  0  0
 95102  2  0  0  0  0
 97 98  1  0  0  0  0
 97212  1  0  0  0  0
 97213  1  0  0  0  0
 98 99  1  0  0  0  0
 98214  1  0  0  0  0
 98215  1  0  0  0  0
 99100  1  0  0  0  0
 99101  2  0  0  0  0
M  CHG  4   1   1  30   1  96  -1 100  -1
M  END
