4flj_ligand
 OpenBabel08222323353D

 68 69  0  0  1  0  0  0  0  0999 V2000
   19.4740   -2.4700   14.9510 N   0  0  0  0  0  0  0  0  0  0  0  0
   24.0250   -2.8390    9.7130 O   0  0  0  0  0  0  0  0  0  0  0  0
   20.4650   -4.9930   19.0360 N   0  0  0  0  0  0  0  0  0  0  0  0
   22.3010   -1.9040   13.2660 O   0  0  0  0  0  0  0  0  0  0  0  0
   22.1600   -1.2610   10.7770 O   0  0  0  0  0  0  0  0  0  0  0  0
   19.3710   -4.4770   13.8670 O   0  0  0  0  0  0  0  0  0  0  0  0
   20.9290   -3.3250   20.4410 O   0  0  0  0  0  0  0  0  0  0  0  0
   19.3990   -3.0180   11.4410 O   0  0  0  0  0  0  0  0  0  0  0  0
   23.6340   -7.1610   11.7490 C   0  0  0  0  0  0  0  0  0  0  0  0
   23.7430   -5.6660   11.6400 C   0  0  0  0  0  0  0  0  0  0  0  0
   23.1570   -4.9100   10.7460 C   0  0  0  0  0  0  0  0  0  0  0  0
   23.3890   -3.3960   10.8610 C   0  0  2  0  0  0  0  0  0  0  0  0
   22.0400   -2.6760   11.0750 C   0  0  1  0  0  0  0  0  0  0  0  0
   21.4930   -2.8320   12.5010 C   0  0  2  0  0  0  0  0  0  0  0  0
   19.9910   -2.5100   12.6180 C   0  0  2  0  0  0  0  0  0  0  0  0
   22.7950   -7.8340   10.6370 C   0  0  0  0  0  0  0  0  0  0  0  0
   22.9910   -7.4550   13.0870 C   0  0  0  0  0  0  0  0  0  0  0  0
   25.0510   -7.6840   11.6870 C   0  0  0  0  0  0  0  0  0  0  0  0
   19.5700   -3.2460   13.8480 C   0  0  0  0  0  0  0  0  0  0  0  0
   18.9480   -3.0440   16.2190 C   0  0  0  0  0  0  0  0  0  0  0  0
   20.0460   -3.6950   17.0420 C   0  0  2  0  0  0  0  0  0  0  0  0
   20.5770   -4.9630   16.3020 C   0  0  0  0  0  0  0  0  0  0  0  0
   21.4610   -5.9860   17.0830 C   0  0  0  0  0  0  0  0  0  0  0  0
   20.7580   -6.3070   18.4030 C   0  0  0  0  0  0  0  0  0  0  0  0
   19.4290   -4.1580   18.3630 C   0  0  0  0  0  0  0  0  0  0  0  0
   21.0370   -4.5180   20.1790 C   0  0  0  0  0  0  0  0  0  0  0  0
   21.6800   -5.4510   21.1990 C   0  0  0  0  0  0  0  0  0  0  0  0
   23.1070   -5.8990   20.8720 C   0  0  0  0  0  0  0  0  0  0  0  0
   22.8830   -4.7670   21.8770 C   0  0  0  0  0  0  0  0  0  0  0  0
   18.0430   -2.5000   11.3010 C   0  0  0  0  0  0  0  0  0  0  0  0
   19.7562   -1.5113   14.9147 H   0  0  0  0  0  0  0  0  0  0  0  0
   24.8717   -3.2520    9.5898 H   0  0  0  0  0  0  0  0  0  0  0  0
   22.1823   -1.0258   12.9237 H   0  0  0  0  0  0  0  0  0  0  0  0
   21.3209   -0.8373   10.9146 H   0  0  0  0  0  0  0  0  0  0  0  0
   24.3696   -5.1633   12.3752 H   0  0  0  0  0  0  0  0  0  0  0  0
   22.5352   -5.3341    9.9590 H   0  0  0  0  0  0  0  0  0  0  0  0
   24.0330   -3.2150   11.7342 H   0  0  0  0  0  0  0  0  0  0  0  0
   21.3116   -3.1192   10.3801 H   0  0  0  0  0  0  0  0  0  0  0  0
   21.6543   -3.8609   12.8550 H   0  0  0  0  0  0  0  0  0  0  0  0
   19.7961   -1.4319   12.7162 H   0  0  0  0  0  0  0  0  0  0  0  0
   22.7735   -8.9215   10.8013 H   0  0  0  0  0  0  0  0  0  0  0  0
   23.2463   -7.6201    9.6569 H   0  0  0  0  0  0  0  0  0  0  0  0
   21.7687   -7.4391   10.6622 H   0  0  0  0  0  0  0  0  0  0  0  0
   23.5781   -6.9817   13.8878 H   0  0  0  0  0  0  0  0  0  0  0  0
   22.9609   -8.5427   13.2483 H   0  0  0  0  0  0  0  0  0  0  0  0
   21.9667   -7.0542   13.0976 H   0  0  0  0  0  0  0  0  0  0  0  0
   25.4845   -7.4525   10.7029 H   0  0  0  0  0  0  0  0  0  0  0  0
   25.0467   -8.7735   11.8386 H   0  0  0  0  0  0  0  0  0  0  0  0
   25.6529   -7.2065   12.4742 H   0  0  0  0  0  0  0  0  0  0  0  0
   18.1871   -3.8011   15.9784 H   0  0  0  0  0  0  0  0  0  0  0  0
   18.4894   -2.2384   16.8112 H   0  0  0  0  0  0  0  0  0  0  0  0
   20.8649   -2.9827   17.2208 H   0  0  0  0  0  0  0  0  0  0  0  0
   21.1726   -4.6105   15.4471 H   0  0  0  0  0  0  0  0  0  0  0  0
   19.6978   -5.5126   15.9347 H   0  0  0  0  0  0  0  0  0  0  0  0
   22.4499   -5.5481   17.2836 H   0  0  0  0  0  0  0  0  0  0  0  0
   21.5803   -6.9051   16.4905 H   0  0  0  0  0  0  0  0  0  0  0  0
   19.8249   -6.8586   18.2158 H   0  0  0  0  0  0  0  0  0  0  0  0
   21.4146   -6.9064   19.0508 H   0  0  0  0  0  0  0  0  0  0  0  0
   19.1728   -3.2905   18.9889 H   0  0  0  0  0  0  0  0  0  0  0  0
   18.5237   -4.7533   18.1730 H   0  0  0  0  0  0  0  0  0  0  0  0
   20.9599   -6.0975   21.7219 H   0  0  0  0  0  0  0  0  0  0  0  0
   23.5386   -5.6786   19.8845 H   0  0  0  0  0  0  0  0  0  0  0  0
   23.4681   -6.8781   21.2198 H   0  0  0  0  0  0  0  0  0  0  0  0
   23.0801   -4.9332   22.9464 H   0  0  0  0  0  0  0  0  0  0  0  0
   23.1507   -3.7337   21.6111 H   0  0  0  0  0  0  0  0  0  0  0  0
   17.5904   -2.9009   10.3821 H   0  0  0  0  0  0  0  0  0  0  0  0
   18.0739   -1.4018   11.2455 H   0  0  0  0  0  0  0  0  0  0  0  0
   17.4418   -2.8065   12.1697 H   0  0  0  0  0  0  0  0  0  0  0  0
  1 19  1  0  0  0  0
  1 31  1  0  0  0  0
  2 32  1  0  0  0  0
  3 24  1  0  0  0  0
  3 26  1  0  0  0  0
  4 33  1  0  0  0  0
  5 34  1  0  0  0  0
  8 30  1  0  0  0  0
  9 16  1  0  0  0  0
  9 17  1  0  0  0  0
  9 18  1  0  0  0  0
 10  9  1  0  0  0  0
 10 35  1  0  0  0  0
 11 10  2  0  0  0  0
 11 36  1  0  0  0  0
 12  2  1  0  0  0  0
 12 11  1  0  0  0  0
 12 37  1  1  0  0  0
 13  5  1  0  0  0  0
 13 12  1  0  0  0  0
 13 38  1  6  0  0  0
 14  4  1  0  0  0  0
 14 13  1  0  0  0  0
 14 39  1  1  0  0  0
 15  8  1  0  0  0  0
 15 14  1  0  0  0  0
 15 40  1  1  0  0  0
 16 41  1  0  0  0  0
 16 42  1  0  0  0  0
 16 43  1  0  0  0  0
 17 44  1  0  0  0  0
 17 45  1  0  0  0  0
 17 46  1  0  0  0  0
 18 47  1  0  0  0  0
 18 48  1  0  0  0  0
 18 49  1  0  0  0  0
 19  6  2  0  0  0  0
 19 15  1  0  0  0  0
 20  1  1  0  0  0  0
 20 50  1  0  0  0  0
 20 51  1  0  0  0  0
 21 20  1  0  0  0  0
 21 22  1  0  0  0  0
 21 25  1  0  0  0  0
 21 52  1  1  0  0  0
 22 23  1  0  0  0  0
 22 53  1  0  0  0  0
 22 54  1  0  0  0  0
 23 24  1  0  0  0  0
 23 55  1  0  0  0  0
 23 56  1  0  0  0  0
 24 57  1  0  0  0  0
 24 58  1  0  0  0  0
 25  3  1  0  0  0  0
 25 59  1  0  0  0  0
 25 60  1  0  0  0  0
 26  7  2  0  0  0  0
 26 27  1  0  0  0  0
 27 28  1  0  0  0  0
 27 29  1  0  0  0  0
 27 61  1  0  0  0  0
 28 29  1  0  0  0  0
 28 62  1  0  0  0  0
 28 63  1  0  0  0  0
 29 64  1  0  0  0  0
 29 65  1  0  0  0  0
 30 66  1  0  0  0  0
 30 67  1  0  0  0  0
 30 68  1  0  0  0  0
M  END
