4fll_ligand
 OpenBabel08222323353D

 67 68  0  0  1  0  0  0  0  0999 V2000
   19.3590   -4.4830   13.9850 O   0  0  0  0  0  0  0  0  0  0  0  0
   19.5230   -3.2890   13.9690 C   0  0  0  0  0  0  0  0  0  0  0  0
   20.0190   -2.6730   12.6700 C   0  0  2  0  0  0  0  0  0  0  0  0
   19.2910   -3.0940   11.4870 O   0  0  0  0  0  0  0  0  0  0  0  0
   17.9790   -2.5390   11.4070 C   0  0  0  0  0  0  0  0  0  0  0  0
   21.5150   -2.9290   12.4910 C   0  0  2  0  0  0  0  0  0  0  0  0
   22.1720   -1.9800   13.2320 O   0  0  0  0  0  0  0  0  0  0  0  0
   21.9500   -2.7520   11.0430 C   0  0  1  0  0  0  0  0  0  0  0  0
   22.1150   -1.3490   10.7740 O   0  0  0  0  0  0  0  0  0  0  0  0
   23.2850   -3.4780   10.8660 C   0  0  2  0  0  0  0  0  0  0  0  0
   23.8480   -2.9740    9.6060 O   0  0  0  0  0  0  0  0  0  0  0  0
   23.0550   -4.9620   10.6620 C   0  0  0  0  0  0  0  0  0  0  0  0
   23.5290   -5.7570   11.6530 C   0  0  0  0  0  0  0  0  0  0  0  0
   23.4360   -7.2610   11.7690 C   0  0  0  0  0  0  0  0  0  0  0  0
   22.7930   -7.4720   13.1170 C   0  0  0  0  0  0  0  0  0  0  0  0
   22.6820   -7.8660   10.6300 C   0  0  0  0  0  0  0  0  0  0  0  0
   24.8860   -7.7440   11.8020 C   0  0  0  0  0  0  0  0  0  0  0  0
   19.1770   -2.3790   14.9100 N   0  0  0  0  0  0  0  0  0  0  0  0
   18.6980   -3.0320   16.1460 C   0  0  0  0  0  0  0  0  0  0  0  0
   19.4750   -2.4030   17.2750 C   0  0  0  0  0  0  0  0  0  0  0  0
   19.1680   -2.8690   18.7490 C   0  0  1  0  0  0  0  0  0  0  0  0
   19.9560   -2.0870   19.8530 C   0  0  0  0  0  0  0  0  0  0  0  0
   19.9530   -0.6720   20.0570 C   0  0  0  0  0  0  0  0  0  0  0  0
   20.7850   -0.3450   21.1920 C   0  0  0  0  0  0  0  0  0  0  0  0
   21.2560   -1.6400   21.6020 C   0  0  0  0  0  0  0  0  0  0  0  0
   20.6950   -2.6640   20.7470 O   0  0  0  0  0  0  0  0  0  0  0  0
   17.7230   -3.2010   19.1310 C   0  0  0  0  0  0  0  0  0  0  0  0
   17.5220   -4.0360   20.2900 C   0  0  0  0  0  0  0  0  0  0  0  0
   16.2450   -4.4120   20.7800 C   0  0  0  0  0  0  0  0  0  0  0  0
   15.0920   -3.9570   20.1070 C   0  0  0  0  0  0  0  0  0  0  0  0
   15.2520   -3.1340   18.9620 C   0  0  0  0  0  0  0  0  0  0  0  0
   16.5390   -2.7530   18.4870 C   0  0  0  0  0  0  0  0  0  0  0  0
   19.8767   -1.5860   12.7604 H   0  0  0  0  0  0  0  0  0  0  0  0
   17.4848   -2.8967   10.4917 H   0  0  0  0  0  0  0  0  0  0  0  0
   18.0460   -1.4413   11.3825 H   0  0  0  0  0  0  0  0  0  0  0  0
   17.3946   -2.8512   12.2851 H   0  0  0  0  0  0  0  0  0  0  0  0
   21.7675   -3.9422   12.8370 H   0  0  0  0  0  0  0  0  0  0  0  0
   21.9375   -1.1151   12.9164 H   0  0  0  0  0  0  0  0  0  0  0  0
   21.1962   -3.1764   10.3635 H   0  0  0  0  0  0  0  0  0  0  0  0
   21.2901   -0.9007   10.9190 H   0  0  0  0  0  0  0  0  0  0  0  0
   23.9538   -3.2946   11.7199 H   0  0  0  0  0  0  0  0  0  0  0  0
   24.6846   -3.3940    9.4439 H   0  0  0  0  0  0  0  0  0  0  0  0
   22.5469   -5.3602    9.7849 H   0  0  0  0  0  0  0  0  0  0  0  0
   24.0412   -5.2476   12.4679 H   0  0  0  0  0  0  0  0  0  0  0  0
   22.6775   -8.5499   13.3034 H   0  0  0  0  0  0  0  0  0  0  0  0
   21.8046   -6.9895   13.1314 H   0  0  0  0  0  0  0  0  0  0  0  0
   23.4280   -7.0306   13.8993 H   0  0  0  0  0  0  0  0  0  0  0  0
   23.2166   -7.6669    9.6895 H   0  0  0  0  0  0  0  0  0  0  0  0
   21.6758   -7.4242   10.5804 H   0  0  0  0  0  0  0  0  0  0  0  0
   22.5985   -8.9523   10.7813 H   0  0  0  0  0  0  0  0  0  0  0  0
   25.4081   -7.2789   12.6512 H   0  0  0  0  0  0  0  0  0  0  0  0
   25.3877   -7.4625   10.8644 H   0  0  0  0  0  0  0  0  0  0  0  0
   24.9056   -8.8381   11.9142 H   0  0  0  0  0  0  0  0  0  0  0  0
   19.2380   -1.3888   14.7843 H   0  0  0  0  0  0  0  0  0  0  0  0
   18.8903   -4.1143   16.1059 H   0  0  0  0  0  0  0  0  0  0  0  0
   17.6204   -2.8557   16.2787 H   0  0  0  0  0  0  0  0  0  0  0  0
   19.2910   -1.3194   17.2319 H   0  0  0  0  0  0  0  0  0  0  0  0
   20.5403   -2.6019   17.0866 H   0  0  0  0  0  0  0  0  0  0  0  0
   19.6410   -3.8618   18.7729 H   0  0  0  0  0  0  0  0  0  0  0  0
   19.4073    0.0488   19.4500 H   0  0  0  0  0  0  0  0  0  0  0  0
   20.9999    0.6307   21.6252 H   0  0  0  0  0  0  0  0  0  0  0  0
   21.9349   -1.8234   22.4335 H   0  0  0  0  0  0  0  0  0  0  0  0
   18.3977   -4.3971   20.8171 H   0  0  0  0  0  0  0  0  0  0  0  0
   16.1566   -5.0400   21.6591 H   0  0  0  0  0  0  0  0  0  0  0  0
   14.1033   -4.2305   20.4574 H   0  0  0  0  0  0  0  0  0  0  0  0
   14.3709   -2.7862   18.4350 H   0  0  0  0  0  0  0  0  0  0  0  0
   16.6166   -2.1094   17.6182 H   0  0  0  0  0  0  0  0  0  0  0  0
  1  2  2  0  0  0  0
  2  3  1  0  0  0  0
  2 18  1  0  0  0  0
  3  4  1  0  0  0  0
  3  6  1  0  0  0  0
  3 33  1  1  0  0  0
  4  5  1  0  0  0  0
  5 34  1  0  0  0  0
  5 35  1  0  0  0  0
  5 36  1  0  0  0  0
  6  7  1  0  0  0  0
  6  8  1  0  0  0  0
  6 37  1  1  0  0  0
  7 38  1  0  0  0  0
  8  9  1  0  0  0  0
  8 10  1  0  0  0  0
  8 39  1  6  0  0  0
  9 40  1  0  0  0  0
 10 11  1  0  0  0  0
 10 12  1  0  0  0  0
 10 41  1  1  0  0  0
 11 42  1  0  0  0  0
 12 13  2  0  0  0  0
 12 43  1  0  0  0  0
 13 14  1  0  0  0  0
 13 44  1  0  0  0  0
 14 15  1  0  0  0  0
 14 16  1  0  0  0  0
 14 17  1  0  0  0  0
 15 45  1  0  0  0  0
 15 46  1  0  0  0  0
 15 47  1  0  0  0  0
 16 48  1  0  0  0  0
 16 49  1  0  0  0  0
 16 50  1  0  0  0  0
 17 51  1  0  0  0  0
 17 52  1  0  0  0  0
 17 53  1  0  0  0  0
 18 19  1  0  0  0  0
 18 54  1  0  0  0  0
 19 20  1  0  0  0  0
 19 55  1  0  0  0  0
 19 56  1  0  0  0  0
 20 21  1  0  0  0  0
 20 57  1  0  0  0  0
 20 58  1  0  0  0  0
 21 22  1  0  0  0  0
 21 27  1  0  0  0  0
 21 59  1  1  0  0  0
 22 23  2  0  0  0  0
 22 26  1  0  0  0  0
 23 24  1  0  0  0  0
 23 60  1  0  0  0  0
 24 25  2  0  0  0  0
 24 61  1  0  0  0  0
 25 26  1  0  0  0  0
 25 62  1  0  0  0  0
 27 28  2  0  0  0  0
 27 32  1  0  0  0  0
 28 29  1  0  0  0  0
 28 63  1  0  0  0  0
 29 30  2  0  0  0  0
 29 64  1  0  0  0  0
 30 31  1  0  0  0  0
 30 65  1  0  0  0  0
 31 32  2  0  0  0  0
 31 66  1  0  0  0  0
 32 67  1  0  0  0  0
M  END
