4fob_ligand
 OpenBabel08222323353D

 80 84  0  0  1  0  0  0  0  0999 V2000
   16.7440   10.9660   11.0970 C   0  0  0  0  0  0  0  0  0  0  0  0
   16.4190   11.7600   10.0690 C   0  0  0  0  0  0  0  0  0  0  0  0
   17.4530   12.5970    9.3750 C   0  0  0  0  0  0  0  0  0  0  0  0
   17.3770   13.9640    9.8630 N   0  0  0  0  0  0  0  0  0  0  0  0
   18.4450   14.9760    9.1370 S   0  0  0  0  0  0  0  0  0  0  0  0
   18.1200   16.3710    9.5860 O   0  0  0  0  0  0  0  0  0  0  0  0
   18.3860   14.8520    7.6490 O   0  0  0  0  0  0  0  0  0  0  0  0
   20.0350   14.5410    9.7140 C   0  0  0  0  0  0  0  0  0  0  0  0
   20.7470   13.4970    9.1200 C   0  0  0  0  0  0  0  0  0  0  0  0
   20.5880   15.2480   10.7710 C   0  0  0  0  0  0  0  0  0  0  0  0
   21.8560   14.9310   11.2340 C   0  0  0  0  0  0  0  0  0  0  0  0
   22.5730   13.9010   10.6590 C   0  0  0  0  0  0  0  0  0  0  0  0
   22.0280   13.1890    9.5950 C   0  0  0  0  0  0  0  0  0  0  0  0
   22.8420   12.0440    9.0060 C   0  0  0  0  0  0  0  0  0  0  0  0
   24.0130   11.8750    9.3630 O   0  0  0  0  0  0  0  0  0  0  0  0
   22.1550   11.2410    8.1850 N   0  0  0  0  0  0  0  0  0  0  0  0
   22.6680   10.1210    7.6460 C   0  0  0  0  0  0  0  0  0  0  0  0
   23.9100    9.6700    7.8250 N   0  0  0  0  0  0  0  0  0  0  0  0
   24.0360    8.5200    7.1590 C   0  0  0  0  0  0  0  0  0  0  0  0
   25.0980    7.6340    7.0000 C   0  0  0  0  0  0  0  0  0  0  0  0
   24.9240    6.4820    6.2200 C   0  0  0  0  0  0  0  0  0  0  0  0
   26.0960    5.5000    6.0130 C   0  0  0  0  0  0  0  0  0  0  0  0
   25.7370    4.1050    6.3210 N   0  3  0  0  0  0  0  0  0  0  0  0
   26.9100    3.2920    5.9120 C   0  0  0  0  0  0  0  0  0  0  0  0
   26.8000    1.8200    6.3560 C   0  0  0  0  0  0  0  0  0  0  0  0
   26.5430    1.6990    7.8640 C   0  0  0  0  0  0  0  0  0  0  0  0
   25.3070    2.5170    8.2310 C   0  0  0  0  0  0  0  0  0  0  0  0
   25.4560    3.9840    7.7690 C   0  0  0  0  0  0  0  0  0  0  0  0
   23.7010    6.2330    5.6090 C   0  0  0  0  0  0  0  0  0  0  0  0
   22.6410    7.1110    5.7660 C   0  0  0  0  0  0  0  0  0  0  0  0
   22.8230    8.2580    6.5420 C   0  0  0  0  0  0  0  0  0  0  0  0
   22.0160    9.2580    6.8670 N   0  0  0  0  0  0  0  0  0  0  0  0
   20.6280    9.3050    6.3950 C   0  0  1  0  0  0  0  0  0  0  0  0
   19.5900    9.2390    7.5220 C   0  0  0  0  0  0  0  0  0  0  0  0
   18.2360    8.9570    6.8650 C   0  0  0  0  0  0  0  0  0  0  0  0
   20.3670   10.5060    5.5260 C   0  0  0  0  0  0  0  0  0  0  0  0
   19.0370   10.2870    4.8070 C   0  0  0  0  0  0  0  0  0  0  0  0
   17.8760    9.9600    5.7530 C   0  0  2  0  0  0  0  0  0  0  0  0
   17.3400   11.2520    6.3860 C   0  0  0  0  0  0  0  0  0  0  0  0
   17.0430   12.2250    5.3670 O   0  0  0  0  0  0  0  0  0  0  0  0
   15.9772   10.3670   11.5860 H   0  0  0  0  0  0  0  0  0  0  0  0
   17.7752   10.9192   11.4441 H   0  0  0  0  0  0  0  0  0  0  0  0
   15.3848   11.7990    9.7302 H   0  0  0  0  0  0  0  0  0  0  0  0
   17.2680   12.5840    8.2908 H   0  0  0  0  0  0  0  0  0  0  0  0
   18.4536   12.1892    9.5812 H   0  0  0  0  0  0  0  0  0  0  0  0
   16.7364   14.2589   10.5720 H   0  0  0  0  0  0  0  0  0  0  0  0
   20.3140   12.9325    8.3021 H   0  0  0  0  0  0  0  0  0  0  0  0
   20.0275   16.0506   11.2366 H   0  0  0  0  0  0  0  0  0  0  0  0
   22.2870   15.4957   12.0528 H   0  0  0  0  0  0  0  0  0  0  0  0
   23.5576   13.6477   11.0352 H   0  0  0  0  0  0  0  0  0  0  0  0
   21.2118   11.4864    7.9609 H   0  0  0  0  0  0  0  0  0  0  0  0
   26.0516    7.8332    7.4754 H   0  0  0  0  0  0  0  0  0  0  0  0
   26.9263    5.8015    6.6685 H   0  0  0  0  0  0  0  0  0  0  0  0
   26.4190    5.5555    4.9630 H   0  0  0  0  0  0  0  0  0  0  0  0
   24.9224    3.8240    5.7981 H   0  0  0  0  0  0  0  0  0  0  0  0
   27.8141    3.7282    6.3618 H   0  0  0  0  0  0  0  0  0  0  0  0
   26.9943    3.3231    4.8157 H   0  0  0  0  0  0  0  0  0  0  0  0
   27.7398    1.3030    6.1121 H   0  0  0  0  0  0  0  0  0  0  0  0
   25.9690    1.3453    5.8137 H   0  0  0  0  0  0  0  0  0  0  0  0
   27.4139    2.0804    8.4172 H   0  0  0  0  0  0  0  0  0  0  0  0
   26.3762    0.6435    8.1251 H   0  0  0  0  0  0  0  0  0  0  0  0
   25.1727    2.4957    9.3225 H   0  0  0  0  0  0  0  0  0  0  0  0
   24.4253    2.0745    7.7443 H   0  0  0  0  0  0  0  0  0  0  0  0
   24.5208    4.5188    7.9912 H   0  0  0  0  0  0  0  0  0  0  0  0
   26.2839    4.4456    8.3272 H   0  0  0  0  0  0  0  0  0  0  0  0
   23.5751    5.3428    5.0034 H   0  0  0  0  0  0  0  0  0  0  0  0
   21.6857    6.9111    5.2942 H   0  0  0  0  0  0  0  0  0  0  0  0
   20.4797    8.4118    5.7703 H   0  0  0  0  0  0  0  0  0  0  0  0
   19.5562   10.1970    8.0615 H   0  0  0  0  0  0  0  0  0  0  0  0
   19.8450    8.4315    8.2241 H   0  0  0  0  0  0  0  0  0  0  0  0
   17.4564    9.0006    7.6398 H   0  0  0  0  0  0  0  0  0  0  0  0
   18.2634    7.9476    6.4288 H   0  0  0  0  0  0  0  0  0  0  0  0
   21.1761   10.6167    4.7891 H   0  0  0  0  0  0  0  0  0  0  0  0
   20.3107   11.4117    6.1477 H   0  0  0  0  0  0  0  0  0  0  0  0
   19.1564    9.4519    4.1011 H   0  0  0  0  0  0  0  0  0  0  0  0
   18.7863   11.2032    4.2522 H   0  0  0  0  0  0  0  0  0  0  0  0
   17.0741    9.5112    5.1485 H   0  0  0  0  0  0  0  0  0  0  0  0
   18.0982   11.6626    7.0690 H   0  0  0  0  0  0  0  0  0  0  0  0
   16.4228   11.0260    6.9495 H   0  0  0  0  0  0  0  0  0  0  0  0
   16.7129   13.0174    5.7740 H   0  0  0  0  0  0  0  0  0  0  0  0
  1  2  2  0  0  0  0
  1 41  1  0  0  0  0
  1 42  1  0  0  0  0
  2  3  1  0  0  0  0
  2 43  1  0  0  0  0
  3  4  1  0  0  0  0
  3 44  1  0  0  0  0
  3 45  1  0  0  0  0
  4  5  1  0  0  0  0
  4 46  1  0  0  0  0
  5  6  2  0  0  0  0
  5  7  2  0  0  0  0
  5  8  1  0  0  0  0
  8  9  2  0  0  0  0
  8 10  1  0  0  0  0
  9 13  1  0  0  0  0
  9 47  1  0  0  0  0
 10 11  2  0  0  0  0
 10 48  1  0  0  0  0
 11 12  1  0  0  0  0
 11 49  1  0  0  0  0
 12 13  2  0  0  0  0
 12 50  1  0  0  0  0
 13 14  1  0  0  0  0
 14 15  2  0  0  0  0
 14 16  1  0  0  0  0
 16 17  1  0  0  0  0
 16 51  1  0  0  0  0
 17 18  2  0  0  0  0
 17 32  1  0  0  0  0
 18 19  1  0  0  0  0
 19 20  2  0  0  0  0
 19 31  1  0  0  0  0
 20 21  1  0  0  0  0
 20 52  1  0  0  0  0
 21 22  1  0  0  0  0
 21 29  2  0  0  0  0
 22 23  1  0  0  0  0
 22 53  1  0  0  0  0
 22 54  1  0  0  0  0
 23 24  1  0  0  0  0
 23 28  1  0  0  0  0
 23 55  1  0  0  0  0
 24 25  1  0  0  0  0
 24 56  1  0  0  0  0
 24 57  1  0  0  0  0
 25 26  1  0  0  0  0
 25 58  1  0  0  0  0
 25 59  1  0  0  0  0
 26 27  1  0  0  0  0
 26 60  1  0  0  0  0
 26 61  1  0  0  0  0
 27 28  1  0  0  0  0
 27 62  1  0  0  0  0
 27 63  1  0  0  0  0
 28 64  1  0  0  0  0
 28 65  1  0  0  0  0
 29 30  1  0  0  0  0
 29 66  1  0  0  0  0
 30 31  2  0  0  0  0
 30 67  1  0  0  0  0
 31 32  1  0  0  0  0
 32 33  1  0  0  0  0
 33 34  1  0  0  0  0
 33 36  1  0  0  0  0
 33 68  1  6  0  0  0
 34 35  1  0  0  0  0
 34 69  1  0  0  0  0
 34 70  1  0  0  0  0
 35 38  1  0  0  0  0
 35 71  1  0  0  0  0
 35 72  1  0  0  0  0
 36 37  1  0  0  0  0
 36 73  1  0  0  0  0
 36 74  1  0  0  0  0
 37 38  1  0  0  0  0
 37 75  1  0  0  0  0
 37 76  1  0  0  0  0
 38 39  1  0  0  0  0
 38 77  1  6  0  0  0
 39 40  1  0  0  0  0
 39 78  1  0  0  0  0
 39 79  1  0  0  0  0
 40 80  1  0  0  0  0
M  CHG  1  23   1
M  END
