4foc_ligand
 OpenBabel08222323353D

 70 74  0  0  1  0  0  0  0  0999 V2000
   16.8190   12.0180    9.6340 C   0  0  0  0  0  0  0  0  0  0  0  0
   17.2510   10.9690    8.7260 O   0  0  0  0  0  0  0  0  0  0  0  0
   17.6060   11.3970    7.4700 C   0  0  0  0  0  0  0  0  0  0  0  0
   17.7600   12.5930    7.2240 O   0  0  0  0  0  0  0  0  0  0  0  0
   17.8310   10.3520    6.3690 C   0  0  2  0  0  0  0  0  0  0  0  0
   18.3630    9.0650    7.0150 C   0  0  0  0  0  0  0  0  0  0  0  0
   19.7980    9.2080    7.5170 C   0  0  0  0  0  0  0  0  0  0  0  0
   18.8310   10.8690    5.3210 C   0  0  0  0  0  0  0  0  0  0  0  0
   20.2490   11.0010    5.8700 C   0  0  0  0  0  0  0  0  0  0  0  0
   20.7310    9.6470    6.3830 C   0  0  1  0  0  0  0  0  0  0  0  0
   22.1010    9.6300    6.9200 N   0  0  0  0  0  0  0  0  0  0  0  0
   22.9680    8.6500    6.6480 C   0  0  0  0  0  0  0  0  0  0  0  0
   22.8950    7.4980    5.8480 C   0  0  0  0  0  0  0  0  0  0  0  0
   24.0050    6.6560    5.7520 C   0  0  0  0  0  0  0  0  0  0  0  0
   23.9400    5.3820    4.8780 C   0  0  0  0  0  0  0  0  0  0  0  0
   24.6400    5.5450    3.5930 N   0  3  0  0  0  0  0  0  0  0  0  0
   24.0380    6.5960    2.7660 C   0  0  0  0  0  0  0  0  0  0  0  0
   24.9460    6.8330    1.5480 C   0  0  0  0  0  0  0  0  0  0  0  0
   25.1460    5.5440    0.7330 C   0  0  0  0  0  0  0  0  0  0  0  0
   25.4420    4.3240    1.6140 C   0  0  0  0  0  0  0  0  0  0  0  0
   24.5250    4.2770    2.8440 C   0  0  0  0  0  0  0  0  0  0  0  0
   25.1620    6.9600    6.4590 C   0  0  0  0  0  0  0  0  0  0  0  0
   25.2240    8.0980    7.2730 C   0  0  0  0  0  0  0  0  0  0  0  0
   24.1240    8.9480    7.3530 C   0  0  0  0  0  0  0  0  0  0  0  0
   23.9200   10.0900    8.0330 N   0  0  0  0  0  0  0  0  0  0  0  0
   22.6820   10.4940    7.7570 C   0  0  0  0  0  0  0  0  0  0  0  0
   22.1060   11.5800    8.2920 N   0  0  0  0  0  0  0  0  0  0  0  0
   22.7520   12.3760    9.1550 C   0  0  0  0  0  0  0  0  0  0  0  0
   23.9220   12.2560    9.5220 O   0  0  0  0  0  0  0  0  0  0  0  0
   21.8790   13.4670    9.7910 C   0  0  0  0  0  0  0  0  0  0  0  0
   20.5450   13.6390    9.4170 C   0  0  0  0  0  0  0  0  0  0  0  0
   19.7510   14.6380   10.0050 C   0  0  0  0  0  0  0  0  0  0  0  0
   20.3180   15.4340   11.0000 C   0  0  0  0  0  0  0  0  0  0  0  0
   21.6460   15.2380   11.3840 C   0  0  0  0  0  0  0  0  0  0  0  0
   22.4290   14.2660   10.7920 C   0  0  0  0  0  0  0  0  0  0  0  0
   16.5582   11.5762   10.6070 H   0  0  0  0  0  0  0  0  0  0  0  0
   15.9385   12.5265    9.2144 H   0  0  0  0  0  0  0  0  0  0  0  0
   17.6333   12.7453    9.7680 H   0  0  0  0  0  0  0  0  0  0  0  0
   16.8730   10.1399    5.8719 H   0  0  0  0  0  0  0  0  0  0  0  0
   18.3298    8.2571    6.2693 H   0  0  0  0  0  0  0  0  0  0  0  0
   17.7166    8.8051    7.8662 H   0  0  0  0  0  0  0  0  0  0  0  0
   20.1403    8.2397    7.9109 H   0  0  0  0  0  0  0  0  0  0  0  0
   19.8262    9.9607    8.3187 H   0  0  0  0  0  0  0  0  0  0  0  0
   18.4957   11.8571    4.9729 H   0  0  0  0  0  0  0  0  0  0  0  0
   18.8462   10.1675    4.4738 H   0  0  0  0  0  0  0  0  0  0  0  0
   20.2551   11.7278    6.6956 H   0  0  0  0  0  0  0  0  0  0  0  0
   20.9196   11.3487    5.0704 H   0  0  0  0  0  0  0  0  0  0  0  0
   20.6750    8.9264    5.5538 H   0  0  0  0  0  0  0  0  0  0  0  0
   21.9840    7.2642    5.3091 H   0  0  0  0  0  0  0  0  0  0  0  0
   22.8847    5.1449    4.6775 H   0  0  0  0  0  0  0  0  0  0  0  0
   24.4041    4.5513    5.4298 H   0  0  0  0  0  0  0  0  0  0  0  0
   25.6087    5.7643    3.7649 H   0  0  0  0  0  0  0  0  0  0  0  0
   23.9499    7.5239    3.3501 H   0  0  0  0  0  0  0  0  0  0  0  0
   23.0401    6.2784    2.4295 H   0  0  0  0  0  0  0  0  0  0  0  0
   25.9260    7.1904    1.8972 H   0  0  0  0  0  0  0  0  0  0  0  0
   24.4861    7.5958    0.9026 H   0  0  0  0  0  0  0  0  0  0  0  0
   25.9895    5.6919    0.0426 H   0  0  0  0  0  0  0  0  0  0  0  0
   24.2303    5.3471    0.1562 H   0  0  0  0  0  0  0  0  0  0  0  0
   26.4880    4.3726    1.9508 H   0  0  0  0  0  0  0  0  0  0  0  0
   25.2899    3.4103    1.0207 H   0  0  0  0  0  0  0  0  0  0  0  0
   23.4835    4.1360    2.5195 H   0  0  0  0  0  0  0  0  0  0  0  0
   24.8237    3.4399    3.4921 H   0  0  0  0  0  0  0  0  0  0  0  0
   26.0256    6.3096    6.3797 H   0  0  0  0  0  0  0  0  0  0  0  0
   26.1233    8.3159    7.8376 H   0  0  0  0  0  0  0  0  0  0  0  0
   21.1646   11.8031    8.0391 H   0  0  0  0  0  0  0  0  0  0  0  0
   20.1151   12.9917    8.6612 H   0  0  0  0  0  0  0  0  0  0  0  0
   18.7235   14.7863    9.6931 H   0  0  0  0  0  0  0  0  0  0  0  0
   19.7260   16.2070   11.4765 H   0  0  0  0  0  0  0  0  0  0  0  0
   22.0712   15.8612   12.1624 H   0  0  0  0  0  0  0  0  0  0  0  0
   23.4583   14.1264   11.1021 H   0  0  0  0  0  0  0  0  0  0  0  0
  1  2  1  0  0  0  0
  1 36  1  0  0  0  0
  1 37  1  0  0  0  0
  1 38  1  0  0  0  0
  2  3  1  0  0  0  0
  3  4  2  0  0  0  0
  3  5  1  0  0  0  0
  5  6  1  0  0  0  0
  5  8  1  0  0  0  0
  5 39  1  6  0  0  0
  6  7  1  0  0  0  0
  6 40  1  0  0  0  0
  6 41  1  0  0  0  0
  7 10  1  0  0  0  0
  7 42  1  0  0  0  0
  7 43  1  0  0  0  0
  8  9  1  0  0  0  0
  8 44  1  0  0  0  0
  8 45  1  0  0  0  0
  9 10  1  0  0  0  0
  9 46  1  0  0  0  0
  9 47  1  0  0  0  0
 10 11  1  0  0  0  0
 10 48  1  6  0  0  0
 11 12  1  0  0  0  0
 11 26  1  0  0  0  0
 12 13  2  0  0  0  0
 12 24  1  0  0  0  0
 13 14  1  0  0  0  0
 13 49  1  0  0  0  0
 14 15  1  0  0  0  0
 14 22  2  0  0  0  0
 15 16  1  0  0  0  0
 15 50  1  0  0  0  0
 15 51  1  0  0  0  0
 16 17  1  0  0  0  0
 16 21  1  0  0  0  0
 16 52  1  0  0  0  0
 17 18  1  0  0  0  0
 17 53  1  0  0  0  0
 17 54  1  0  0  0  0
 18 19  1  0  0  0  0
 18 55  1  0  0  0  0
 18 56  1  0  0  0  0
 19 20  1  0  0  0  0
 19 57  1  0  0  0  0
 19 58  1  0  0  0  0
 20 21  1  0  0  0  0
 20 59  1  0  0  0  0
 20 60  1  0  0  0  0
 21 61  1  0  0  0  0
 21 62  1  0  0  0  0
 22 23  1  0  0  0  0
 22 63  1  0  0  0  0
 23 24  2  0  0  0  0
 23 64  1  0  0  0  0
 24 25  1  0  0  0  0
 25 26  2  0  0  0  0
 26 27  1  0  0  0  0
 27 28  1  0  0  0  0
 27 65  1  0  0  0  0
 28 29  2  0  0  0  0
 28 30  1  0  0  0  0
 30 31  2  0  0  0  0
 30 35  1  0  0  0  0
 31 32  1  0  0  0  0
 31 66  1  0  0  0  0
 32 33  2  0  0  0  0
 32 67  1  0  0  0  0
 33 34  1  0  0  0  0
 33 68  1  0  0  0  0
 34 35  2  0  0  0  0
 34 69  1  0  0  0  0
 35 70  1  0  0  0  0
M  CHG  1  16   1
M  END
