4fod_ligand
 OpenBabel08222323353D

 87 91  0  0  1  0  0  0  0  0999 V2000
   14.6190   11.9760    9.0930 C   0  0  0  0  0  0  0  0  0  0  0  0
   16.1270   11.8150    9.3280 C   0  0  0  0  0  0  0  0  0  0  0  0
   16.4060   11.3540   10.7510 C   0  0  0  0  0  0  0  0  0  0  0  0
   16.6650   10.8250    8.3620 N   0  0  0  0  0  0  0  0  0  0  0  0
   17.5280   11.1660    7.4000 C   0  0  0  0  0  0  0  0  0  0  0  0
   17.9350   12.3100    7.2210 O   0  0  0  0  0  0  0  0  0  0  0  0
   17.9770   10.0200    6.4760 C   0  0  1  0  0  0  0  0  0  0  0  0
   19.0060   10.5160    5.4330 C   0  0  0  0  0  0  0  0  0  0  0  0
   20.4390   10.6480    5.9780 C   0  0  0  0  0  0  0  0  0  0  0  0
   18.5120    8.8580    7.3200 C   0  0  0  0  0  0  0  0  0  0  0  0
   19.9360    9.1120    7.8310 C   0  0  0  0  0  0  0  0  0  0  0  0
   20.8910    9.3650    6.6600 C   0  0  2  0  0  0  0  0  0  0  0  0
   22.2830    9.4600    7.1760 N   0  0  0  0  0  0  0  0  0  0  0  0
   23.2470    8.5550    6.9690 C   0  0  0  0  0  0  0  0  0  0  0  0
   23.3000    7.3460    6.2640 C   0  0  0  0  0  0  0  0  0  0  0  0
   24.4800    6.6020    6.2280 C   0  0  0  0  0  0  0  0  0  0  0  0
   24.5480    5.2730    5.4500 C   0  0  0  0  0  0  0  0  0  0  0  0
   24.4330    4.1140    6.3520 N   0  3  2  0  0  0  0  0  0  0  0  0
   25.4840    4.1440    7.3870 C   0  0  0  0  0  0  0  0  0  0  0  0
   25.3250    2.9490    8.3330 C   0  0  0  0  0  0  0  0  0  0  0  0
   24.5460    2.8760    5.5510 C   0  0  0  0  0  0  0  0  0  0  0  0
   24.4130    1.6290    6.4330 C   0  0  0  0  0  0  0  0  0  0  0  0
   25.4480    1.6410    7.5540 C   0  0  2  0  0  0  0  0  0  0  0  0
   25.3060    0.4140    8.4560 C   0  0  0  0  0  0  0  0  0  0  0  0
   23.9010    0.3630    9.0590 C   0  0  0  0  0  0  0  0  0  0  0  0
   26.3400    0.4670    9.5700 C   0  0  0  0  0  0  0  0  0  0  0  0
   25.5440   -0.7500    7.6370 O   0  0  0  0  0  0  0  0  0  0  0  0
   25.6080    7.0740    6.8950 C   0  0  0  0  0  0  0  0  0  0  0  0
   25.5500    8.2800    7.5920 C   0  0  0  0  0  0  0  0  0  0  0  0
   24.3720    9.0220    7.6370 C   0  0  0  0  0  0  0  0  0  0  0  0
   24.0540   10.1890    8.2260 N   0  0  0  0  0  0  0  0  0  0  0  0
   22.7810   10.4460    7.9250 C   0  0  0  0  0  0  0  0  0  0  0  0
   22.1000   11.5010    8.3620 N   0  0  0  0  0  0  0  0  0  0  0  0
   22.6930   12.3480    9.2130 C   0  0  0  0  0  0  0  0  0  0  0  0
   23.8690   12.2670    9.5720 O   0  0  0  0  0  0  0  0  0  0  0  0
   21.7920   13.4450    9.7610 C   0  0  0  0  0  0  0  0  0  0  0  0
   20.4870   13.5880    9.2990 C   0  0  0  0  0  0  0  0  0  0  0  0
   19.6770   14.5830    9.8330 C   0  0  0  0  0  0  0  0  0  0  0  0
   20.1670   15.4150   10.8300 C   0  0  0  0  0  0  0  0  0  0  0  0
   19.3870   16.3740   11.3570 F   0  0  0  0  0  0  0  0  0  0  0  0
   21.4630   15.2630   11.2980 C   0  0  0  0  0  0  0  0  0  0  0  0
   22.2730   14.2700   10.7710 C   0  0  0  0  0  0  0  0  0  0  0  0
   14.2130   12.7088    9.8059 H   0  0  0  0  0  0  0  0  0  0  0  0
   14.1196   11.0069    9.2391 H   0  0  0  0  0  0  0  0  0  0  0  0
   14.4435   12.3278    8.0657 H   0  0  0  0  0  0  0  0  0  0  0  0
   16.6207   12.7844    9.1652 H   0  0  0  0  0  0  0  0  0  0  0  0
   17.4911   11.2459   10.8953 H   0  0  0  0  0  0  0  0  0  0  0  0
   15.9147   10.3855   10.9257 H   0  0  0  0  0  0  0  0  0  0  0  0
   16.0140   12.0973   11.4608 H   0  0  0  0  0  0  0  0  0  0  0  0
   16.3722    9.8715    8.4332 H   0  0  0  0  0  0  0  0  0  0  0  0
   17.0954    9.6589    5.9261 H   0  0  0  0  0  0  0  0  0  0  0  0
   18.6821   11.5027    5.0703 H   0  0  0  0  0  0  0  0  0  0  0  0
   19.0194    9.8035    4.5950 H   0  0  0  0  0  0  0  0  0  0  0  0
   20.4710   11.4715    6.7065 H   0  0  0  0  0  0  0  0  0  0  0  0
   21.1208   10.8697    5.1437 H   0  0  0  0  0  0  0  0  0  0  0  0
   18.5153    7.9466    6.7042 H   0  0  0  0  0  0  0  0  0  0  0  0
   17.8472    8.7141    8.1845 H   0  0  0  0  0  0  0  0  0  0  0  0
   20.2802    8.2325    8.3948 H   0  0  0  0  0  0  0  0  0  0  0  0
   19.9319    9.9920    8.4909 H   0  0  0  0  0  0  0  0  0  0  0  0
   20.8330    8.5328    5.9430 H   0  0  0  0  0  0  0  0  0  0  0  0
   22.4197    6.9863    5.7436 H   0  0  0  0  0  0  0  0  0  0  0  0
   25.5096    5.2185    4.9186 H   0  0  0  0  0  0  0  0  0  0  0  0
   23.7242    5.2424    4.7217 H   0  0  0  0  0  0  0  0  0  0  0  0
   23.5320    4.1365    6.8034 H   0  0  0  0  0  0  0  0  0  0  0  0
   25.4011    5.0775    7.9629 H   0  0  0  0  0  0  0  0  0  0  0  0
   26.4714    4.0972    6.9045 H   0  0  0  0  0  0  0  0  0  0  0  0
   24.3364    2.9945    8.8132 H   0  0  0  0  0  0  0  0  0  0  0  0
   26.1091    2.9884    9.1034 H   0  0  0  0  0  0  0  0  0  0  0  0
   25.5265    2.8597    5.0526 H   0  0  0  0  0  0  0  0  0  0  0  0
   23.7491    2.8655    4.7929 H   0  0  0  0  0  0  0  0  0  0  0  0
   24.5634    0.7324    5.8138 H   0  0  0  0  0  0  0  0  0  0  0  0
   23.4054    1.6055    6.8736 H   0  0  0  0  0  0  0  0  0  0  0  0
   26.4492    1.6068    7.0996 H   0  0  0  0  0  0  0  0  0  0  0  0
   23.8112   -0.5228    9.7050 H   0  0  0  0  0  0  0  0  0  0  0  0
   23.1570    0.3043    8.2509 H   0  0  0  0  0  0  0  0  0  0  0  0
   23.7245    1.2707    9.6548 H   0  0  0  0  0  0  0  0  0  0  0  0
   27.3486    0.5036    9.1326 H   0  0  0  0  0  0  0  0  0  0  0  0
   26.2461   -0.4295   10.2005 H   0  0  0  0  0  0  0  0  0  0  0  0
   26.1733    1.3653   10.1826 H   0  0  0  0  0  0  0  0  0  0  0  0
   24.9056   -0.7771    6.9339 H   0  0  0  0  0  0  0  0  0  0  0  0
   26.5299    6.5043    6.8722 H   0  0  0  0  0  0  0  0  0  0  0  0
   26.4324    8.6447    8.1052 H   0  0  0  0  0  0  0  0  0  0  0  0
   21.1600   11.6595    8.0600 H   0  0  0  0  0  0  0  0  0  0  0  0
   20.1052   12.9282    8.5283 H   0  0  0  0  0  0  0  0  0  0  0  0
   18.6630   14.7092    9.4711 H   0  0  0  0  0  0  0  0  0  0  0  0
   21.8415   15.9188   12.0737 H   0  0  0  0  0  0  0  0  0  0  0  0
   23.2812   14.1366   11.1462 H   0  0  0  0  0  0  0  0  0  0  0  0
  1  2  1  0  0  0  0
  1 43  1  0  0  0  0
  1 44  1  0  0  0  0
  1 45  1  0  0  0  0
  2  3  1  0  0  0  0
  2  4  1  0  0  0  0
  2 46  1  0  0  0  0
  3 47  1  0  0  0  0
  3 48  1  0  0  0  0
  3 49  1  0  0  0  0
  4  5  1  0  0  0  0
  4 50  1  0  0  0  0
  5  6  2  0  0  0  0
  5  7  1  0  0  0  0
  7  8  1  0  0  0  0
  7 10  1  0  0  0  0
  7 51  1  6  0  0  0
  8  9  1  0  0  0  0
  8 52  1  0  0  0  0
  8 53  1  0  0  0  0
  9 12  1  0  0  0  0
  9 54  1  0  0  0  0
  9 55  1  0  0  0  0
 10 11  1  0  0  0  0
 10 56  1  0  0  0  0
 10 57  1  0  0  0  0
 11 12  1  0  0  0  0
 11 58  1  0  0  0  0
 11 59  1  0  0  0  0
 12 13  1  0  0  0  0
 12 60  1  6  0  0  0
 13 14  1  0  0  0  0
 13 32  1  0  0  0  0
 14 15  2  0  0  0  0
 14 30  1  0  0  0  0
 15 16  1  0  0  0  0
 15 61  1  0  0  0  0
 16 17  1  0  0  0  0
 16 28  2  0  0  0  0
 17 18  1  0  0  0  0
 17 62  1  0  0  0  0
 17 63  1  0  0  0  0
 18 19  1  0  0  0  0
 18 21  1  0  0  0  0
 18 64  1  1  0  0  0
 19 20  1  0  0  0  0
 19 65  1  0  0  0  0
 19 66  1  0  0  0  0
 20 23  1  0  0  0  0
 20 67  1  0  0  0  0
 20 68  1  0  0  0  0
 21 22  1  0  0  0  0
 21 69  1  0  0  0  0
 21 70  1  0  0  0  0
 22 23  1  0  0  0  0
 22 71  1  0  0  0  0
 22 72  1  0  0  0  0
 23 24  1  0  0  0  0
 23 73  1  6  0  0  0
 24 25  1  0  0  0  0
 24 26  1  0  0  0  0
 24 27  1  0  0  0  0
 25 74  1  0  0  0  0
 25 75  1  0  0  0  0
 25 76  1  0  0  0  0
 26 77  1  0  0  0  0
 26 78  1  0  0  0  0
 26 79  1  0  0  0  0
 27 80  1  0  0  0  0
 28 29  1  0  0  0  0
 28 81  1  0  0  0  0
 29 30  2  0  0  0  0
 29 82  1  0  0  0  0
 30 31  1  0  0  0  0
 31 32  2  0  0  0  0
 32 33  1  0  0  0  0
 33 34  1  0  0  0  0
 33 83  1  0  0  0  0
 34 35  2  0  0  0  0
 34 36  1  0  0  0  0
 36 37  2  0  0  0  0
 36 42  1  0  0  0  0
 37 38  1  0  0  0  0
 37 84  1  0  0  0  0
 38 39  2  0  0  0  0
 38 85  1  0  0  0  0
 39 40  1  0  0  0  0
 39 41  1  0  0  0  0
 41 42  2  0  0  0  0
 41 86  1  0  0  0  0
 42 87  1  0  0  0  0
M  CHG  1  18   1
M  END
