4fqo_ligand
 OpenBabel08222323353D

 57 58  0  0  0  0  0  0  0  0999 V2000
   14.8020    4.8010   25.7680 N   0  0  0  0  0  0  0  0  0  0  0  0
   13.9230    4.8990   24.8670 C   0  0  0  0  0  3  0  0  0  0  0  0
   14.2340    4.6250   23.5920 N   0  0  0  0  0  0  0  0  0  0  0  0
   12.5170    5.3300   25.2070 C   0  0  0  0  0  0  0  0  0  0  0  0
   11.7230    5.9250   24.2220 C   0  0  0  0  0  0  0  0  0  0  0  0
   10.4230    6.3290   24.5120 C   0  0  0  0  0  0  0  0  0  0  0  0
   12.0000    5.1300   26.4890 C   0  0  0  0  0  0  0  0  0  0  0  0
   10.6940    5.5290   26.7760 C   0  0  0  0  0  0  0  0  0  0  0  0
    9.9040    6.1300   25.7930 C   0  0  0  0  0  0  0  0  0  0  0  0
    8.6260    6.5100   26.1360 O   0  0  0  0  0  0  0  0  0  0  0  0
    7.6980    7.1580   25.2630 C   0  0  0  0  0  0  0  0  0  0  0  0
    7.1920    6.1800   24.2070 C   0  0  0  0  0  0  0  0  0  0  0  0
    5.8340    5.5770   24.5330 C   0  0  0  0  0  0  0  0  0  0  0  0
    5.6980    4.2160   23.8530 C   0  0  0  0  0  0  0  0  0  0  0  0
    4.5340    3.4130   24.4230 C   0  0  0  0  0  0  0  0  0  0  0  0
    3.6620    2.8320   23.3050 C   0  0  0  0  0  0  0  0  0  0  0  0
    3.3560    1.3260   23.3960 C   0  0  0  0  0  0  0  0  0  0  0  0
    3.7370    0.8490   24.6790 O   0  0  0  0  0  0  0  0  0  0  0  0
    3.3620   -0.3550   25.2340 C   0  0  0  0  0  0  0  0  0  0  0  0
    2.0760   -0.9330   25.1240 C   0  0  0  0  0  0  0  0  0  0  0  0
    1.7940   -2.1510   25.7550 C   0  0  0  0  0  0  0  0  0  0  0  0
    4.3650   -0.9700   25.9540 C   0  0  0  0  0  0  0  0  0  0  0  0
    4.0890   -2.1720   26.5680 C   0  0  0  0  0  0  0  0  0  0  0  0
    2.8270   -2.7520   26.4890 C   0  0  0  0  0  0  0  0  0  0  0  0
    2.6970   -4.0610   27.1950 C   0  0  0  0  0  3  0  0  0  0  0  0
    3.7480   -4.8930   27.2120 N   0  0  0  0  0  0  0  0  0  0  0  0
    1.6250   -4.3810   27.7660 N   0  0  0  0  0  0  0  0  0  0  0  0
   14.5651    5.0140   26.7370 H   0  0  0  0  0  0  0  0  0  0  0  0
   15.7491    4.5088   25.5269 H   0  0  0  0  0  0  0  0  0  0  0  0
   13.5239    4.7088   22.8645 H   0  0  0  0  0  0  0  0  0  0  0  0
   15.1807    4.3328   23.3494 H   0  0  0  0  0  0  0  0  0  0  0  0
   12.1249    6.0736   23.2198 H   0  0  0  0  0  0  0  0  0  0  0  0
    9.8120    6.7993   23.7416 H   0  0  0  0  0  0  0  0  0  0  0  0
   12.6132    4.6649   27.2609 H   0  0  0  0  0  0  0  0  0  0  0  0
   10.2872    5.3705   27.7747 H   0  0  0  0  0  0  0  0  0  0  0  0
    8.1979    7.9899   24.7668 H   0  0  0  0  0  0  0  0  0  0  0  0
    6.8520    7.5189   25.8479 H   0  0  0  0  0  0  0  0  0  0  0  0
    7.9081    5.3601   24.1523 H   0  0  0  0  0  0  0  0  0  0  0  0
    7.0874    6.7333   23.2737 H   0  0  0  0  0  0  0  0  0  0  0  0
    5.0481    6.2409   24.1728 H   0  0  0  0  0  0  0  0  0  0  0  0
    5.7438    5.4522   25.6121 H   0  0  0  0  0  0  0  0  0  0  0  0
    6.6170    3.6549   24.0220 H   0  0  0  0  0  0  0  0  0  0  0  0
    5.5141    4.3800   22.7912 H   0  0  0  0  0  0  0  0  0  0  0  0
    3.9207    4.0751   25.0343 H   0  0  0  0  0  0  0  0  0  0  0  0
    4.9354    2.5902   25.0145 H   0  0  0  0  0  0  0  0  0  0  0  0
    4.2190    2.9743   22.3790 H   0  0  0  0  0  0  0  0  0  0  0  0
    2.7013    3.3427   23.3713 H   0  0  0  0  0  0  0  0  0  0  0  0
    3.9137    0.7921   22.6266 H   0  0  0  0  0  0  0  0  0  0  0  0
    2.2893    1.1595   23.2456 H   0  0  0  0  0  0  0  0  0  0  0  0
    1.3016   -0.4287   24.5460 H   0  0  0  0  0  0  0  0  0  0  0  0
    0.8101   -2.6139   25.6787 H   0  0  0  0  0  0  0  0  0  0  0  0
    5.3525   -0.5158   26.0352 H   0  0  0  0  0  0  0  0  0  0  0  0
    4.8755   -2.6789   27.1271 H   0  0  0  0  0  0  0  0  0  0  0  0
    4.6165   -4.6271   26.7479 H   0  0  0  0  0  0  0  0  0  0  0  0
    3.6792   -5.7919   27.6890 H   0  0  0  0  0  0  0  0  0  0  0  0
    0.8291   -3.7432   27.7511 H   0  0  0  0  0  0  0  0  0  0  0  0
    1.5503   -5.2786   28.2446 H   0  0  0  0  0  0  0  0  0  0  0  0
  1  2  1  0  0  0  0
  1 28  1  0  0  0  0
  1 29  1  0  0  0  0
  2  3  1  0  0  0  0
  2  4  1  0  0  0  0
  3 30  1  0  0  0  0
  3 31  1  0  0  0  0
  4  5  2  0  0  0  0
  4  7  1  0  0  0  0
  5  6  1  0  0  0  0
  5 32  1  0  0  0  0
  6  9  2  0  0  0  0
  6 33  1  0  0  0  0
  7  8  2  0  0  0  0
  7 34  1  0  0  0  0
  8  9  1  0  0  0  0
  8 35  1  0  0  0  0
  9 10  1  0  0  0  0
 10 11  1  0  0  0  0
 11 12  1  0  0  0  0
 11 36  1  0  0  0  0
 11 37  1  0  0  0  0
 12 13  1  0  0  0  0
 12 38  1  0  0  0  0
 12 39  1  0  0  0  0
 13 14  1  0  0  0  0
 13 40  1  0  0  0  0
 13 41  1  0  0  0  0
 14 15  1  0  0  0  0
 14 42  1  0  0  0  0
 14 43  1  0  0  0  0
 15 16  1  0  0  0  0
 15 44  1  0  0  0  0
 15 45  1  0  0  0  0
 16 17  1  0  0  0  0
 16 46  1  0  0  0  0
 16 47  1  0  0  0  0
 17 18  1  0  0  0  0
 17 48  1  0  0  0  0
 17 49  1  0  0  0  0
 18 19  1  0  0  0  0
 19 20  2  0  0  0  0
 19 22  1  0  0  0  0
 20 21  1  0  0  0  0
 20 50  1  0  0  0  0
 21 24  2  0  0  0  0
 21 51  1  0  0  0  0
 22 23  2  0  0  0  0
 22 52  1  0  0  0  0
 23 24  1  0  0  0  0
 23 53  1  0  0  0  0
 24 25  1  0  0  0  0
 25 26  1  0  0  0  0
 25 27  1  0  0  0  0
 26 54  1  0  0  0  0
 26 55  1  0  0  0  0
 27 56  1  0  0  0  0
 27 57  1  0  0  0  0
M  END
