4fr3_ligand
 OpenBabel08222323353D

125124  0  0  1  0  0  0  0  0999 V2000
   -6.9860   -7.1440   15.0900 N   0  3  0  0  0  0  0  0  0  0  0  0
   -8.0370   -6.9480   14.0410 C   0  0  2  0  0  0  0  0  0  0  0  0
   -9.4060   -7.5540   14.4790 C   0  0  0  0  0  0  0  0  0  0  0  0
   -9.6360   -7.8280   15.6930 O   0  0  0  0  0  0  0  0  0  0  0  0
   -7.5410   -7.4790   12.6690 C   0  0  0  0  0  0  0  0  0  0  0  0
   -7.7060   -8.9990   12.3920 C   0  0  0  0  0  0  0  0  0  0  0  0
   -6.7130   -9.9280   13.1730 C   0  0  0  0  0  0  0  0  0  0  0  0
   -5.3950  -10.2180   12.4100 C   0  0  0  0  0  0  0  0  0  0  0  0
   -5.5920  -11.1370   11.2250 N   0  3  0  0  0  0  0  0  0  0  0  0
  -10.3260   -7.7040   13.5200 N   0  0  0  0  0  0  0  0  0  0  0  0
  -11.5960   -8.3480   13.8190 C   0  0  2  0  0  0  0  0  0  0  0  0
  -11.4370   -9.8520   13.4840 C   0  0  0  0  0  0  0  0  0  0  0  0
  -10.8190  -10.1960   12.4470 O   0  0  0  0  0  0  0  0  0  0  0  0
  -12.7470   -7.6400   13.0720 C   0  0  0  0  0  0  0  0  0  0  0  0
  -14.1270   -8.3180   13.1900 C   0  0  0  0  0  0  0  0  0  0  0  0
  -15.2640   -7.3090   13.0010 C   0  0  0  0  0  0  0  0  0  0  0  0
  -16.5680   -7.9680   12.8920 N   0  0  0  0  0  0  0  0  0  0  0  0
  -17.3750   -8.2240   13.9460 C   0  0  0  0  0  3  0  0  0  0  0  0
  -17.0240   -7.8720   15.1930 N   0  0  0  0  0  0  0  0  0  0  0  0
  -18.5580   -8.8130   13.7660 N   0  0  0  0  0  0  0  0  0  0  0  0
  -11.9500  -10.7360   14.3580 N   0  0  0  0  0  0  0  0  0  0  0  0
  -11.8900  -12.1920   14.0770 C   0  0  2  0  0  0  0  0  0  0  0  0
  -12.6000  -12.5100   12.7440 C   0  0  0  0  0  0  0  0  0  0  0  0
  -13.4840  -11.7660   12.3400 O   0  0  0  0  0  0  0  0  0  0  0  0
  -12.5190  -12.9740   15.2470 C   0  0  0  0  0  0  0  0  0  0  0  0
  -14.1190  -13.1030   15.2400 C   0  0  0  0  0  0  0  0  0  0  0  0
  -14.8690  -11.6940   15.3240 C   0  0  0  0  0  0  0  0  0  0  0  0
  -16.3410  -11.8190   15.2780 N   0  0  0  0  0  0  0  0  0  0  0  0
  -17.0650  -12.0580   14.1610 C   0  0  0  0  0  3  0  0  0  0  0  0
  -16.4540  -12.1060   12.9660 N   0  0  0  0  0  0  0  0  0  0  0  0
  -18.4210  -12.2160   14.2340 N   0  0  0  0  0  0  0  0  0  0  0  0
  -12.2430  -13.5960   12.0940 N   0  0  0  0  0  0  0  0  0  0  0  0
  -12.7550  -13.8960   10.7650 C   0  0  2  0  0  0  0  0  0  0  0  0
  -13.9810  -14.8150   10.8600 C   0  0  0  0  0  0  0  0  0  0  0  0
  -14.0190  -15.7900   11.6800 O   0  0  0  0  0  0  0  0  0  0  0  0
  -11.6740  -14.6340    9.9760 C   0  0  0  0  0  0  0  0  0  0  0  0
  -10.3110  -13.8530    9.9960 C   0  0  0  0  0  0  0  0  0  0  0  0
  -10.5310  -12.4740    9.2340 C   0  0  0  0  0  0  0  0  0  0  0  0
   -9.3690  -11.4830    9.4230 C   0  0  0  0  0  0  0  0  0  0  0  0
   -8.2640  -11.9910    8.6800 N   0  3  0  0  0  0  0  0  0  0  0  0
  -14.9400  -14.5580   10.0020 N   0  0  0  0  0  0  0  0  0  0  0  0
  -15.9800  -15.5420    9.7650 C   0  0  1  0  0  0  0  0  0  0  0  0
  -17.3280  -15.1320   10.4270 C   0  0  0  0  0  0  0  0  0  0  0  0
  -17.7320  -13.8870    9.8860 O   0  0  0  0  0  0  0  0  0  0  0  0
  -16.1730  -15.6470    8.2410 C   0  0  0  0  0  0  0  0  0  0  0  0
  -15.5940  -14.8530    7.4790 O   0  0  0  0  0  0  0  0  0  0  0  0
  -19.2050  -13.3770   10.3420 P   0  0  0  0  0  0  0  0  0  0  0  0
  -19.3200  -12.0590    9.5190 O   0  0  0  0  0  1  0  0  0  0  0  0
  -20.2250  -14.5200    9.8670 O   0  0  0  0  0  1  0  0  0  0  0  0
  -19.2760  -13.0590   11.8790 O   0  0  0  0  0  0  0  0  0  0  0  0
  -16.9380  -16.5870    7.7620 N   0  0  0  0  0  0  0  0  0  0  0  0
  -17.0730  -16.7170    6.2680 C   0  0  2  0  0  0  0  0  0  0  0  0
  -18.4130  -17.1640    5.8130 C   0  0  0  0  0  0  0  0  0  0  0  0
  -19.0890  -17.7420    6.5800 O   0  5  0  0  0  0  0  0  0  0  0  0
  -16.0180  -17.7250    5.7330 C   0  0  0  0  0  0  0  0  0  0  0  0
  -16.3890  -19.1820    6.2060 C   0  0  0  0  0  0  0  0  0  0  0  0
  -15.9370  -17.6900    4.1700 C   0  0  0  0  0  0  0  0  0  0  0  0
  -18.8350  -17.0230    4.6800 O   0  0  0  0  0  0  0  0  0  0  0  0
   -6.1173   -6.7416   14.7746 H   0  0  0  0  0  0  0  0  0  0  0  0
   -6.8583   -8.1297   15.2577 H   0  0  0  0  0  0  0  0  0  0  0  0
   -7.2750   -6.6926   15.9437 H   0  0  0  0  0  0  0  0  0  0  0  0
   -8.1906   -5.8645   13.9297 H   0  0  0  0  0  0  0  0  0  0  0  0
   -6.4694   -7.2433   12.5911 H   0  0  0  0  0  0  0  0  0  0  0  0
   -8.0932   -6.9385   11.8861 H   0  0  0  0  0  0  0  0  0  0  0  0
   -7.5556   -9.1677   11.3155 H   0  0  0  0  0  0  0  0  0  0  0  0
   -8.7310   -9.2867   12.6685 H   0  0  0  0  0  0  0  0  0  0  0  0
   -7.2169  -10.8856   13.3708 H   0  0  0  0  0  0  0  0  0  0  0  0
   -6.4614   -9.4421   14.1272 H   0  0  0  0  0  0  0  0  0  0  0  0
   -4.6833  -10.6883   13.1045 H   0  0  0  0  0  0  0  0  0  0  0  0
   -4.9806   -9.2648   12.0500 H   0  0  0  0  0  0  0  0  0  0  0  0
   -4.7067  -11.2906   10.7681 H   0  0  0  0  0  0  0  0  0  0  0  0
   -6.2364  -10.7142   10.5754 H   0  0  0  0  0  0  0  0  0  0  0  0
   -5.9640  -12.0187   11.5417 H   0  0  0  0  0  0  0  0  0  0  0  0
  -10.1406   -7.3726   12.5949 H   0  0  0  0  0  0  0  0  0  0  0  0
  -11.7972   -8.2578   14.8967 H   0  0  0  0  0  0  0  0  0  0  0  0
  -12.4817   -7.5935   12.0055 H   0  0  0  0  0  0  0  0  0  0  0  0
  -12.8348   -6.6194   13.4728 H   0  0  0  0  0  0  0  0  0  0  0  0
  -14.2168   -8.7757   14.1862 H   0  0  0  0  0  0  0  0  0  0  0  0
  -14.2094   -9.0983   12.4191 H   0  0  0  0  0  0  0  0  0  0  0  0
  -15.0790   -6.7330   12.0823 H   0  0  0  0  0  0  0  0  0  0  0  0
  -15.2814   -6.6273   13.8641 H   0  0  0  0  0  0  0  0  0  0  0  0
  -16.8893   -8.2535   11.9559 H   0  0  0  0  0  0  0  0  0  0  0  0
  -17.6535   -8.0763   15.9823 H   0  0  0  0  0  0  0  0  0  0  0  0
  -16.1252   -7.3976   15.3605 H   0  0  0  0  0  0  0  0  0  0  0  0
  -18.8547   -9.0944   12.8206 H   0  0  0  0  0  0  0  0  0  0  0  0
  -19.1749   -8.9865   14.5724 H   0  0  0  0  0  0  0  0  0  0  0  0
  -12.3746  -10.4102   15.2027 H   0  0  0  0  0  0  0  0  0  0  0  0
  -10.8349  -12.4897   13.9867 H   0  0  0  0  0  0  0  0  0  0  0  0
  -12.2278  -12.4710   16.1809 H   0  0  0  0  0  0  0  0  0  0  0  0
  -12.1011  -13.9914   15.2328 H   0  0  0  0  0  0  0  0  0  0  0  0
  -14.4236  -13.7123   16.1037 H   0  0  0  0  0  0  0  0  0  0  0  0
  -14.4244  -13.6058   14.3105 H   0  0  0  0  0  0  0  0  0  0  0  0
  -14.5435  -11.0727   14.4767 H   0  0  0  0  0  0  0  0  0  0  0  0
  -14.5884  -11.2033   16.2676 H   0  0  0  0  0  0  0  0  0  0  0  0
  -16.8549  -11.7162   16.1647 H   0  0  0  0  0  0  0  0  0  0  0  0
  -17.0031  -12.2879   12.1138 H   0  0  0  0  0  0  0  0  0  0  0  0
  -15.4363  -11.9610   12.9017 H   0  0  0  0  0  0  0  0  0  0  0  0
  -18.8952  -12.1802   15.1476 H   0  0  0  0  0  0  0  0  0  0  0  0
  -18.9684  -12.3709   13.3754 H   0  0  0  0  0  0  0  0  0  0  0  0
  -11.6028  -14.2325   12.5242 H   0  0  0  0  0  0  0  0  0  0  0  0
  -13.0272  -12.9613   10.2529 H   0  0  0  0  0  0  0  0  0  0  0  0
  -12.0063  -14.7460    8.9334 H   0  0  0  0  0  0  0  0  0  0  0  0
  -11.5226  -15.6283   10.4214 H   0  0  0  0  0  0  0  0  0  0  0  0
   -9.5343  -14.4423    9.4868 H   0  0  0  0  0  0  0  0  0  0  0  0
  -10.0042  -13.6619   11.0349 H   0  0  0  0  0  0  0  0  0  0  0  0
  -11.4524  -12.0083    9.6136 H   0  0  0  0  0  0  0  0  0  0  0  0
  -10.6411  -12.6823    8.1595 H   0  0  0  0  0  0  0  0  0  0  0  0
   -9.1056  -11.4082   10.4884 H   0  0  0  0  0  0  0  0  0  0  0  0
   -9.6539  -10.4900    9.0451 H   0  0  0  0  0  0  0  0  0  0  0  0
   -7.4781  -11.3675    8.7781 H   0  0  0  0  0  0  0  0  0  0  0  0
   -8.5174  -12.0617    7.7069 H   0  0  0  0  0  0  0  0  0  0  0  0
   -8.0149  -12.9031    9.0295 H   0  0  0  0  0  0  0  0  0  0  0  0
  -14.9542  -13.6861    9.5126 H   0  0  0  0  0  0  0  0  0  0  0  0
  -15.6626  -16.5140   10.1705 H   0  0  0  0  0  0  0  0  0  0  0  0
  -17.1942  -15.0383   11.5148 H   0  0  0  0  0  0  0  0  0  0  0  0
  -18.0924  -15.8942   10.2158 H   0  0  0  0  0  0  0  0  0  0  0  0
  -17.4255  -17.2094    8.3743 H   0  0  0  0  0  0  0  0  0  0  0  0
  -16.8770  -15.7284    5.8273 H   0  0  0  0  0  0  0  0  0  0  0  0
  -15.0338  -17.4546    6.1430 H   0  0  0  0  0  0  0  0  0  0  0  0
  -15.6405  -19.8927    5.8257 H   0  0  0  0  0  0  0  0  0  0  0  0
  -17.3818  -19.4521    5.8171 H   0  0  0  0  0  0  0  0  0  0  0  0
  -16.4035  -19.2181    7.3053 H   0  0  0  0  0  0  0  0  0  0  0  0
  -15.6781  -16.6734    3.8390 H   0  0  0  0  0  0  0  0  0  0  0  0
  -16.9105  -17.9769    3.7458 H   0  0  0  0  0  0  0  0  0  0  0  0
  -15.1654  -18.3949    3.8269 H   0  0  0  0  0  0  0  0  0  0  0  0
  1  2  1  0  0  0  0
  1 59  1  0  0  0  0
  1 60  1  0  0  0  0
  1 61  1  0  0  0  0
  2  3  1  0  0  0  0
  2  5  1  0  0  0  0
  2 62  1  6  0  0  0
  3  4  2  0  0  0  0
  3 10  1  0  0  0  0
  5  6  1  0  0  0  0
  5 63  1  0  0  0  0
  5 64  1  0  0  0  0
  6  7  1  0  0  0  0
  6 65  1  0  0  0  0
  6 66  1  0  0  0  0
  7  8  1  0  0  0  0
  7 67  1  0  0  0  0
  7 68  1  0  0  0  0
  8  9  1  0  0  0  0
  8 69  1  0  0  0  0
  8 70  1  0  0  0  0
  9 71  1  0  0  0  0
  9 72  1  0  0  0  0
  9 73  1  0  0  0  0
 10 11  1  0  0  0  0
 10 74  1  0  0  0  0
 11 12  1  0  0  0  0
 11 14  1  0  0  0  0
 11 75  1  1  0  0  0
 12 13  2  0  0  0  0
 12 21  1  0  0  0  0
 14 15  1  0  0  0  0
 14 76  1  0  0  0  0
 14 77  1  0  0  0  0
 15 16  1  0  0  0  0
 15 78  1  0  0  0  0
 15 79  1  0  0  0  0
 16 17  1  0  0  0  0
 16 80  1  0  0  0  0
 16 81  1  0  0  0  0
 17 18  1  0  0  0  0
 17 82  1  0  0  0  0
 18 19  1  0  0  0  0
 18 20  1  0  0  0  0
 19 83  1  0  0  0  0
 19 84  1  0  0  0  0
 20 85  1  0  0  0  0
 20 86  1  0  0  0  0
 21 22  1  0  0  0  0
 21 87  1  0  0  0  0
 22 23  1  0  0  0  0
 22 25  1  0  0  0  0
 22 88  1  6  0  0  0
 23 24  2  0  0  0  0
 23 32  1  0  0  0  0
 25 26  1  0  0  0  0
 25 89  1  0  0  0  0
 25 90  1  0  0  0  0
 26 27  1  0  0  0  0
 26 91  1  0  0  0  0
 26 92  1  0  0  0  0
 27 28  1  0  0  0  0
 27 93  1  0  0  0  0
 27 94  1  0  0  0  0
 28 29  1  0  0  0  0
 28 95  1  0  0  0  0
 29 30  1  0  0  0  0
 29 31  1  0  0  0  0
 30 96  1  0  0  0  0
 30 97  1  0  0  0  0
 31 98  1  0  0  0  0
 31 99  1  0  0  0  0
 32 33  1  0  0  0  0
 32100  1  0  0  0  0
 33 34  1  0  0  0  0
 33 36  1  0  0  0  0
 33101  1  6  0  0  0
 34 35  2  0  0  0  0
 34 41  1  0  0  0  0
 36 37  1  0  0  0  0
 36102  1  0  0  0  0
 36103  1  0  0  0  0
 37 38  1  0  0  0  0
 37104  1  0  0  0  0
 37105  1  0  0  0  0
 38 39  1  0  0  0  0
 38106  1  0  0  0  0
 38107  1  0  0  0  0
 39 40  1  0  0  0  0
 39108  1  0  0  0  0
 39109  1  0  0  0  0
 40110  1  0  0  0  0
 40111  1  0  0  0  0
 40112  1  0  0  0  0
 41 42  1  0  0  0  0
 41113  1  0  0  0  0
 42 43  1  0  0  0  0
 42 45  1  0  0  0  0
 42114  1  1  0  0  0
 43 44  1  0  0  0  0
 43115  1  0  0  0  0
 43116  1  0  0  0  0
 44 47  1  0  0  0  0
 45 46  2  0  0  0  0
 45 51  1  0  0  0  0
 47 48  1  0  0  0  0
 47 49  1  0  0  0  0
 47 50  2  0  0  0  0
 51 52  1  0  0  0  0
 51117  1  0  0  0  0
 52 53  1  0  0  0  0
 52 55  1  0  0  0  0
 52118  1  6  0  0  0
 53 54  1  0  0  0  0
 53 58  2  0  0  0  0
 55 56  1  0  0  0  0
 55 57  1  0  0  0  0
 55119  1  0  0  0  0
 56120  1  0  0  0  0
 56121  1  0  0  0  0
 56122  1  0  0  0  0
 57123  1  0  0  0  0
 57124  1  0  0  0  0
 57125  1  0  0  0  0
M  CHG  4   1   1   9   1  40   1  54  -1
M  END
