4fri_ligand
 OpenBabel08222323353D

 46 49  0  0  1  0  0  0  0  0999 V2000
   66.4290   54.9810   11.2800 C   0  0  0  0  0  0  0  0  0  0  0  0
   67.1120   53.8390   11.8750 O   0  0  0  0  0  0  0  0  0  0  0  0
   67.5090   52.8280   11.0230 C   0  0  0  0  0  0  0  0  0  0  0  0
   67.9440   51.6140   11.5530 C   0  0  0  0  0  0  0  0  0  0  0  0
   68.3550   50.5760   10.7030 C   0  0  0  0  0  0  0  0  0  0  0  0
   67.5190   52.9820    9.6340 C   0  0  0  0  0  0  0  0  0  0  0  0
   67.9340   51.9320    8.7940 C   0  0  0  0  0  0  0  0  0  0  0  0
   68.3550   50.7130    9.3100 C   0  0  0  0  0  0  0  0  0  0  0  0
   68.8060   49.5580    8.3550 C   0  0  1  0  0  0  0  0  0  0  0  0
   68.4250   48.1810    8.8840 C   0  0  0  0  0  0  0  0  0  0  0  0
   67.3460   47.7230    8.0390 O   0  0  0  0  0  0  0  0  0  0  0  0
   67.2460   48.6000    6.9970 C   0  0  2  0  0  3  0  0  0  0  0  0
   68.0400   49.6500    7.0980 N   0  0  0  0  0  0  0  0  0  0  0  0
   66.3950   48.4340    6.0010 N   0  0  0  0  0  0  0  0  0  0  0  0
   70.2930   49.5210    8.0550 C   0  0  0  0  0  0  0  0  0  0  0  0
   70.7660   48.7290    7.0160 C   0  0  0  0  0  0  0  0  0  0  0  0
   71.1870   50.2570    8.8190 C   0  0  0  0  0  0  0  0  0  0  0  0
   72.5480   50.1870    8.5260 C   0  0  0  0  0  0  0  0  0  0  0  0
   73.0120   49.3890    7.4970 C   0  0  0  0  0  0  0  0  0  0  0  0
   72.1240   48.6630    6.7170 C   0  0  0  0  0  0  0  0  0  0  0  0
   72.5800   47.8260    5.6780 C   0  0  0  0  0  0  0  0  0  0  0  0
   73.5870   46.8970    5.9340 C   0  0  0  0  0  0  0  0  0  0  0  0
   74.0070   46.0300    4.9290 C   0  0  0  0  0  0  0  0  0  0  0  0
   73.4250   46.0980    3.6720 C   0  0  0  0  0  0  0  0  0  0  0  0
   72.4710   46.9840    3.4590 N   0  0  0  0  0  0  0  0  0  0  0  0
   72.0300   47.8340    4.3970 C   0  0  0  0  0  0  0  0  0  0  0  0
   71.0440   48.7050    4.0780 F   0  0  0  0  0  0  0  0  0  0  0  0
   66.1714   55.7050   12.0671 H   0  0  0  0  0  0  0  0  0  0  0  0
   65.5101   54.6395   10.7810 H   0  0  0  0  0  0  0  0  0  0  0  0
   67.0901   55.4604   10.5430 H   0  0  0  0  0  0  0  0  0  0  0  0
   67.9648   51.4713   12.6274 H   0  0  0  0  0  0  0  0  0  0  0  0
   68.6827   49.6390   11.1386 H   0  0  0  0  0  0  0  0  0  0  0  0
   67.2029   53.9227    9.1979 H   0  0  0  0  0  0  0  0  0  0  0  0
   67.9249   52.0778    7.7199 H   0  0  0  0  0  0  0  0  0  0  0  0
   68.0903   48.2508    9.9295 H   0  0  0  0  0  0  0  0  0  0  0  0
   69.2817   47.4942    8.8183 H   0  0  0  0  0  0  0  0  0  0  0  0
   68.1129   50.4120    6.4088 H   0  0  0  0  0  0  0  0  0  0  0  0
   66.3561   49.1232    5.2366 H   0  0  0  0  0  0  0  0  0  0  0  0
   65.7701   47.6153    5.9886 H   0  0  0  0  0  0  0  0  0  0  0  0
   70.0636   48.1510    6.4265 H   0  0  0  0  0  0  0  0  0  0  0  0
   70.8318   50.8784    9.6331 H   0  0  0  0  0  0  0  0  0  0  0  0
   73.2519   50.7660    9.1128 H   0  0  0  0  0  0  0  0  0  0  0  0
   74.0761   49.3303    7.2985 H   0  0  0  0  0  0  0  0  0  0  0  0
   74.0434   46.8495    6.9161 H   0  0  0  0  0  0  0  0  0  0  0  0
   74.7867   45.3038    5.1284 H   0  0  0  0  0  0  0  0  0  0  0  0
   73.7484   45.4345    2.8781 H   0  0  0  0  0  0  0  0  0  0  0  0
  1  2  1  0  0  0  0
  1 28  1  0  0  0  0
  1 29  1  0  0  0  0
  1 30  1  0  0  0  0
  2  3  1  0  0  0  0
  3  4  2  0  0  0  0
  3  6  1  0  0  0  0
  4  5  1  0  0  0  0
  4 31  1  0  0  0  0
  5  8  2  0  0  0  0
  5 32  1  0  0  0  0
  6  7  2  0  0  0  0
  6 33  1  0  0  0  0
  7  8  1  0  0  0  0
  7 34  1  0  0  0  0
  9  8  1  1  0  0  0
  9 10  1  0  0  0  0
  9 13  1  0  0  0  0
  9 15  1  0  0  0  0
 10 11  1  0  0  0  0
 10 35  1  0  0  0  0
 10 36  1  0  0  0  0
 11 12  1  0  0  0  0
 12 13  1  0  0  0  0
 12 14  1  1  0  0  0
 13 37  1  0  0  0  0
 14 38  1  0  0  0  0
 14 39  1  0  0  0  0
 15 16  2  0  0  0  0
 15 17  1  0  0  0  0
 16 20  1  0  0  0  0
 16 40  1  0  0  0  0
 17 18  2  0  0  0  0
 17 41  1  0  0  0  0
 18 19  1  0  0  0  0
 18 42  1  0  0  0  0
 19 20  2  0  0  0  0
 19 43  1  0  0  0  0
 20 21  1  0  0  0  0
 21 22  2  0  0  0  0
 21 26  1  0  0  0  0
 22 23  1  0  0  0  0
 22 44  1  0  0  0  0
 23 24  2  0  0  0  0
 23 45  1  0  0  0  0
 24 25  1  0  0  0  0
 24 46  1  0  0  0  0
 25 26  2  0  0  0  0
 26 27  1  0  0  0  0
M  END
