4fs3_ligand
 OpenBabel08222323353D

 51 54  0  0  0  0  0  0  0  0999 V2000
  112.2380   64.8150   35.4650 O   0  0  0  0  0  0  0  0  0  0  0  0
  111.2650   65.5680   35.4960 C   0  0  0  0  0  0  0  0  0  0  0  0
  110.7310   66.0540   36.8440 C   0  0  0  0  0  0  0  0  0  0  0  0
  111.6690   65.6640   37.9540 C   0  0  0  0  0  0  0  0  0  0  0  0
  111.3040   66.2730   39.2900 C   0  0  0  0  0  0  0  0  0  0  0  0
  110.1770   67.0850   39.4630 C   0  0  0  0  0  0  0  0  0  0  0  0
  109.8960   67.5950   40.7290 C   0  0  0  0  0  0  0  0  0  0  0  0
  108.6900   68.4930   41.0070 C   0  0  0  0  0  0  0  0  0  0  0  0
  108.2460   68.2660   42.4560 C   0  0  0  0  0  0  0  0  0  0  0  0
  112.1370   65.9860   40.3640 C   0  0  0  0  0  0  0  0  0  0  0  0
  111.9010   66.4710   41.5940 N   0  0  0  0  0  0  0  0  0  0  0  0
  110.8210   67.2630   41.8390 C   0  0  0  0  0  0  0  0  0  0  0  0
  110.5910   67.7480   43.0920 N   0  0  0  0  0  0  0  0  0  0  0  0
  109.4060   68.2560   43.4570 C   0  0  0  0  0  0  0  0  0  0  0  0
  109.2490   68.6820   44.5990 O   0  0  0  0  0  0  0  0  0  0  0  0
  110.6520   65.9860   34.3900 N   0  0  0  0  0  0  0  0  0  0  0  0
  111.2400   65.6720   33.0850 C   0  0  0  0  0  0  0  0  0  0  0  0
  109.4120   66.8140   34.3380 C   0  0  0  0  0  0  0  0  0  0  0  0
  109.9780   68.2020   34.3610 C   0  0  0  0  0  0  0  0  0  0  0  0
  110.4240   68.8590   35.4850 O   0  0  0  0  0  0  0  0  0  0  0  0
  110.9520   70.1220   35.1320 C   0  0  0  0  0  0  0  0  0  0  0  0
  110.8850   70.3380   33.6850 C   0  0  0  0  0  0  0  0  0  0  0  0
  110.2450   69.0900   33.2030 C   0  0  0  0  0  0  0  0  0  0  0  0
  109.9830   68.9260   31.7330 C   0  0  0  0  0  0  0  0  0  0  0  0
  111.4940   71.0700   36.0000 C   0  0  0  0  0  0  0  0  0  0  0  0
  111.9510   72.2480   35.3970 C   0  0  0  0  0  0  0  0  0  0  0  0
  111.8840   72.4560   34.0060 C   0  0  0  0  0  0  0  0  0  0  0  0
  111.3430   71.5260   33.1110 C   0  0  0  0  0  0  0  0  0  0  0  0
  109.7453   65.6015   37.0273 H   0  0  0  0  0  0  0  0  0  0  0  0
  110.6331   67.1494   36.8210 H   0  0  0  0  0  0  0  0  0  0  0  0
  112.6834   65.9942   37.6857 H   0  0  0  0  0  0  0  0  0  0  0  0
  111.6544   64.5687   38.0544 H   0  0  0  0  0  0  0  0  0  0  0  0
  109.5312   67.3141   38.6230 H   0  0  0  0  0  0  0  0  0  0  0  0
  107.8689   68.2360   40.3217 H   0  0  0  0  0  0  0  0  0  0  0  0
  108.9702   69.5471   40.8645 H   0  0  0  0  0  0  0  0  0  0  0  0
  107.7282   67.2972   42.5137 H   0  0  0  0  0  0  0  0  0  0  0  0
  107.5507   69.0707   42.7371 H   0  0  0  0  0  0  0  0  0  0  0  0
  113.0021   65.3526   40.2048 H   0  0  0  0  0  0  0  0  0  0  0  0
  111.3327   67.7238   43.7623 H   0  0  0  0  0  0  0  0  0  0  0  0
  110.6079   66.0904   32.2878 H   0  0  0  0  0  0  0  0  0  0  0  0
  111.3061   64.5805   32.9656 H   0  0  0  0  0  0  0  0  0  0  0  0
  112.2473   66.1095   33.0218 H   0  0  0  0  0  0  0  0  0  0  0  0
  108.7680   66.6283   35.2102 H   0  0  0  0  0  0  0  0  0  0  0  0
  108.8427   66.6275   33.4154 H   0  0  0  0  0  0  0  0  0  0  0  0
  109.5076   67.9507   31.5519 H   0  0  0  0  0  0  0  0  0  0  0  0
  110.9342   68.9780   31.1830 H   0  0  0  0  0  0  0  0  0  0  0  0
  109.3153   69.7291   31.3877 H   0  0  0  0  0  0  0  0  0  0  0  0
  111.5571   70.9056   37.0696 H   0  0  0  0  0  0  0  0  0  0  0  0
  112.3711   73.0271   36.0228 H   0  0  0  0  0  0  0  0  0  0  0  0
  112.2722   73.3862   33.6071 H   0  0  0  0  0  0  0  0  0  0  0  0
  111.2835   71.7148   32.0452 H   0  0  0  0  0  0  0  0  0  0  0  0
  1  2  2  0  0  0  0
  2  3  1  0  0  0  0
  2 16  1  0  0  0  0
  3  4  1  0  0  0  0
  3 29  1  0  0  0  0
  3 30  1  0  0  0  0
  4  5  1  0  0  0  0
  4 31  1  0  0  0  0
  4 32  1  0  0  0  0
  5  6  2  0  0  0  0
  5 10  1  0  0  0  0
  6  7  1  0  0  0  0
  6 33  1  0  0  0  0
  7  8  1  0  0  0  0
  7 12  2  0  0  0  0
  8  9  1  0  0  0  0
  8 34  1  0  0  0  0
  8 35  1  0  0  0  0
  9 14  1  0  0  0  0
  9 36  1  0  0  0  0
  9 37  1  0  0  0  0
 10 11  2  0  0  0  0
 10 38  1  0  0  0  0
 11 12  1  0  0  0  0
 12 13  1  0  0  0  0
 13 14  1  0  0  0  0
 13 39  1  0  0  0  0
 14 15  2  0  0  0  0
 16 17  1  0  0  0  0
 16 18  1  0  0  0  0
 17 40  1  0  0  0  0
 17 41  1  0  0  0  0
 17 42  1  0  0  0  0
 18 19  1  0  0  0  0
 18 43  1  0  0  0  0
 18 44  1  0  0  0  0
 19 20  1  0  0  0  0
 19 23  2  0  0  0  0
 20 21  1  0  0  0  0
 21 22  2  0  0  0  0
 21 25  1  0  0  0  0
 22 23  1  0  0  0  0
 22 28  1  0  0  0  0
 23 24  1  0  0  0  0
 24 45  1  0  0  0  0
 24 46  1  0  0  0  0
 24 47  1  0  0  0  0
 25 26  2  0  0  0  0
 25 48  1  0  0  0  0
 26 27  1  0  0  0  0
 26 49  1  0  0  0  0
 27 28  2  0  0  0  0
 27 50  1  0  0  0  0
 28 51  1  0  0  0  0
M  END
