4g0k_ligand
 OpenBabel08222323353D

 58 59  0  0  1  0  0  0  0  0999 V2000
  -63.2290   32.3510   30.3630 C   0  0  0  0  0  0  0  0  0  0  0  0
  -64.4530   32.5430   32.6820 C   0  0  0  0  0  0  0  0  0  0  0  0
  -58.4430   31.8920   28.6370 C   0  0  1  0  0  0  0  0  0  0  0  0
  -57.7580   33.5630   26.9010 C   0  0  0  0  0  0  0  0  0  0  0  0
  -59.1150   36.8250   31.2860 C   0  0  0  0  0  0  0  0  0  0  0  0
  -58.8470   39.1630   30.1710 O   0  0  0  0  0  0  0  0  0  0  0  0
  -57.8870   38.4140   29.9430 C   0  0  0  0  0  0  0  0  0  0  0  0
  -56.7550   38.8820   29.0720 C   0  0  0  0  0  0  0  0  0  0  0  0
  -55.6710   37.9880   28.8400 C   0  0  0  0  0  0  0  0  0  0  0  0
  -55.6230   36.5960   29.4390 C   0  0  0  0  0  0  0  0  0  0  0  0
  -56.7590   36.1070   30.3160 C   0  0  0  0  0  0  0  0  0  0  0  0
  -56.5820   34.4770   31.1840 S   0  0  0  0  0  0  0  0  0  0  0  0
  -57.0400   32.8710   30.3850 C   0  0  0  0  0  0  0  0  0  0  0  0
  -58.5140   32.8380   29.8340 C   0  0  2  0  0  0  0  0  0  0  0  0
  -59.5100   32.5590   30.8840 N   0  0  0  0  0  0  0  0  0  0  0  0
  -60.7730   33.2350   30.8940 C   0  0  0  0  0  0  0  0  0  0  0  0
  -62.0280   32.4840   31.3630 C   0  0  0  0  0  0  0  0  0  0  0  0
  -64.5440   32.7360   31.0880 C   0  0  1  0  0  0  0  0  0  0  0  0
  -65.2800   33.1010   33.4680 O   0  5  0  0  0  0  0  0  0  0  0  0
  -63.9460   31.4310   32.9360 O   0  0  0  0  0  0  0  0  0  0  0  0
  -64.8670   34.1290   30.7490 N   0  3  0  0  0  0  0  0  0  0  0  0
  -60.8590   34.4100   30.5170 O   0  0  0  0  0  0  0  0  0  0  0  0
  -57.7380   32.2480   27.5470 N   0  3  0  0  0  0  0  0  0  0  0  0
  -57.5120   33.3310   25.3440 C   0  0  0  0  0  0  0  0  0  0  0  0
  -58.0740   34.1330   24.5600 O   0  5  0  0  0  0  0  0  0  0  0  0
  -56.7460   32.3570   25.0390 O   0  0  0  0  0  0  0  0  0  0  0  0
  -58.2280   30.7010   28.9570 O   0  0  0  0  0  0  0  0  0  0  0  0
  -57.8240   37.0310   30.5270 C   0  0  0  0  0  0  0  0  0  0  0  0
  -54.6350   35.8870   29.1850 O   0  0  0  0  0  0  0  0  0  0  0  0
  -54.6150   38.4360   28.0250 C   0  0  0  0  0  0  0  0  0  0  0  0
  -54.6490   39.7310   27.4530 C   0  0  0  0  0  0  0  0  0  0  0  0
  -55.7130   40.6220   27.6790 C   0  0  0  0  0  0  0  0  0  0  0  0
  -56.7700   40.1870   28.4920 C   0  0  0  0  0  0  0  0  0  0  0  0
  -63.2967   31.3128   30.0059 H   0  0  0  0  0  0  0  0  0  0  0  0
  -63.0708   33.0236   29.5071 H   0  0  0  0  0  0  0  0  0  0  0  0
  -59.4800   31.8898   28.2702 H   0  0  0  0  0  0  0  0  0  0  0  0
  -56.9625   34.1987   27.3169 H   0  0  0  0  0  0  0  0  0  0  0  0
  -58.7337   34.0455   27.0599 H   0  0  0  0  0  0  0  0  0  0  0  0
  -59.7123   37.7480   31.2507 H   0  0  0  0  0  0  0  0  0  0  0  0
  -58.8889   36.5744   32.3329 H   0  0  0  0  0  0  0  0  0  0  0  0
  -59.6833   36.0028   30.8266 H   0  0  0  0  0  0  0  0  0  0  0  0
  -56.9291   32.0685   31.1291 H   0  0  0  0  0  0  0  0  0  0  0  0
  -56.3514   32.6912   29.5463 H   0  0  0  0  0  0  0  0  0  0  0  0
  -58.7627   33.8371   29.4469 H   0  0  0  0  0  0  0  0  0  0  0  0
  -59.3017   31.8901   31.5976 H   0  0  0  0  0  0  0  0  0  0  0  0
  -61.7157   31.4650   31.6350 H   0  0  0  0  0  0  0  0  0  0  0  0
  -62.4038   33.0033   32.2569 H   0  0  0  0  0  0  0  0  0  0  0  0
  -65.3487   32.0857   30.7146 H   0  0  0  0  0  0  0  0  0  0  0  0
  -65.7209   34.3982   31.2121 H   0  0  0  0  0  0  0  0  0  0  0  0
  -64.9848   34.2134   29.7515 H   0  0  0  0  0  0  0  0  0  0  0  0
  -64.1169   34.7309   31.0509 H   0  0  0  0  0  0  0  0  0  0  0  0
  -58.0142   31.5966   26.8291 H   0  0  0  0  0  0  0  0  0  0  0  0
  -56.7734   32.0886   27.7923 H   0  0  0  0  0  0  0  0  0  0  0  0
  -58.7397   30.4839   29.7274 H   0  0  0  0  0  0  0  0  0  0  0  0
  -53.7695   37.7852   27.8337 H   0  0  0  0  0  0  0  0  0  0  0  0
  -53.8274   40.0459   26.8198 H   0  0  0  0  0  0  0  0  0  0  0  0
  -55.7163   41.6128   27.2393 H   0  0  0  0  0  0  0  0  0  0  0  0
  -57.6074   40.8486   28.6821 H   0  0  0  0  0  0  0  0  0  0  0  0
  1 18  1  0  0  0  0
  1 34  1  0  0  0  0
  1 35  1  0  0  0  0
  2 19  1  0  0  0  0
  2 20  2  0  0  0  0
  3 23  1  0  0  0  0
  3 27  1  0  0  0  0
  3 36  1  6  0  0  0
  4 24  1  0  0  0  0
  4 37  1  0  0  0  0
  4 38  1  0  0  0  0
  5 39  1  0  0  0  0
  5 40  1  0  0  0  0
  5 41  1  0  0  0  0
  7  6  2  0  0  0  0
  7  8  1  0  0  0  0
  8 33  1  0  0  0  0
  9  8  2  0  0  0  0
  9 30  1  0  0  0  0
 10  9  1  0  0  0  0
 10 29  2  0  0  0  0
 11 10  1  0  0  0  0
 11 28  2  0  0  0  0
 12 11  1  0  0  0  0
 13 12  1  0  0  0  0
 13 42  1  0  0  0  0
 13 43  1  0  0  0  0
 14  3  1  0  0  0  0
 14 13  1  0  0  0  0
 14 44  1  6  0  0  0
 15 14  1  0  0  0  0
 15 45  1  0  0  0  0
 16 15  1  0  0  0  0
 16 17  1  0  0  0  0
 16 22  2  0  0  0  0
 17  1  1  0  0  0  0
 17 46  1  0  0  0  0
 17 47  1  0  0  0  0
 18  2  1  0  0  0  0
 18 21  1  0  0  0  0
 18 48  1  6  0  0  0
 21 49  1  0  0  0  0
 21 50  1  0  0  0  0
 21 51  1  0  0  0  0
 23  4  1  0  0  0  0
 23 52  1  0  0  0  0
 23 53  1  0  0  0  0
 24 25  1  0  0  0  0
 24 26  2  0  0  0  0
 27 54  1  0  0  0  0
 28  5  1  0  0  0  0
 28  7  1  0  0  0  0
 30 31  2  0  0  0  0
 30 55  1  0  0  0  0
 31 32  1  0  0  0  0
 31 56  1  0  0  0  0
 32 33  2  0  0  0  0
 32 57  1  0  0  0  0
 33 58  1  0  0  0  0
M  CHG  4  19  -1  21   1  23   1  25  -1
M  END
