4g17_ligand
 OpenBabel08222323353D

 40 42  0  0  0  0  0  0  0  0999 V2000
   38.2090  -11.9990   26.8590 C   0  0  0  0  0  0  0  0  0  0  0  0
   37.7720  -13.3880   26.5570 C   0  0  0  0  0  0  0  0  0  0  0  0
   37.1810  -14.1170   27.6870 C   0  0  0  0  0  0  0  0  0  0  0  0
   37.0590  -13.4390   29.0340 C   0  0  0  0  0  0  0  0  0  0  0  0
   37.5080  -12.0470   29.2790 C   0  0  0  0  0  0  0  0  0  0  0  0
   38.0990  -11.3010   28.1680 C   0  0  0  0  0  0  0  0  0  0  0  0
   36.6610  -15.3770   27.8340 N   0  0  0  0  0  0  0  0  0  0  0  0
   36.2690  -15.4490   29.1190 C   0  0  0  0  0  0  0  0  0  0  0  0
   36.4700  -14.3710   29.8700 N   0  0  0  0  0  0  0  0  0  0  0  0
   35.6250  -16.6230   29.6770 N   0  0  0  0  0  0  0  0  0  0  0  0
   38.8110  -11.2910   25.8100 C   0  0  0  0  0  0  0  0  0  0  0  0
   39.2560  -10.7250   24.9180 N   0  0  0  0  0  0  0  0  0  0  0  0
   34.7080  -20.2060   27.9140 C   0  0  0  0  0  0  0  0  0  0  0  0
   36.0230  -19.5890   27.5820 C   0  0  0  0  0  0  0  0  0  0  0  0
   36.3530  -18.3500   28.1870 C   0  0  0  0  0  0  0  0  0  0  0  0
   35.3460  -17.7970   29.0910 C   0  0  0  0  0  0  0  0  0  0  0  0
   34.0410  -18.3510   29.4640 C   0  0  0  0  0  0  0  0  0  0  0  0
   33.7010  -19.6120   28.8540 C   0  0  0  0  0  0  0  0  0  0  0  0
   34.3590  -21.5640   27.2110 C   0  0  0  0  0  0  0  0  0  0  0  0
   32.8310  -21.6430   26.7810 C   0  0  0  0  0  0  0  0  0  0  0  0
   34.6910  -22.7100   28.1810 C   0  0  0  0  0  0  0  0  0  0  0  0
   35.1260  -21.8450   25.8660 C   0  0  0  0  0  0  0  0  0  0  0  0
   37.8817  -13.8307   25.5736 H   0  0  0  0  0  0  0  0  0  0  0  0
   37.4009  -11.5933   30.2576 H   0  0  0  0  0  0  0  0  0  0  0  0
   38.4429  -10.2807   28.2936 H   0  0  0  0  0  0  0  0  0  0  0  0
   36.5865  -16.1109   27.1151 H   0  0  0  0  0  0  0  0  0  0  0  0
   35.3415  -16.5439   30.6640 H   0  0  0  0  0  0  0  0  0  0  0  0
   36.7086  -20.0742   26.8967 H   0  0  0  0  0  0  0  0  0  0  0  0
   37.2921  -17.8450   27.9917 H   0  0  0  0  0  0  0  0  0  0  0  0
   33.3750  -17.8452   30.1537 H   0  0  0  0  0  0  0  0  0  0  0  0
   32.7607  -20.1084   29.0649 H   0  0  0  0  0  0  0  0  0  0  0  0
   32.6366  -22.6101   26.2943 H   0  0  0  0  0  0  0  0  0  0  0  0
   32.6051  -20.8272   26.0786 H   0  0  0  0  0  0  0  0  0  0  0  0
   32.1937  -21.5465   27.6724 H   0  0  0  0  0  0  0  0  0  0  0  0
   35.7496  -22.6478   28.4733 H   0  0  0  0  0  0  0  0  0  0  0  0
   34.5031  -23.6747   27.6869 H   0  0  0  0  0  0  0  0  0  0  0  0
   34.0579  -22.6273   29.0767 H   0  0  0  0  0  0  0  0  0  0  0  0
   34.9104  -21.0416   25.1463 H   0  0  0  0  0  0  0  0  0  0  0  0
   34.7958  -22.8083   25.4499 H   0  0  0  0  0  0  0  0  0  0  0  0
   36.2079  -21.8815   26.0615 H   0  0  0  0  0  0  0  0  0  0  0  0
  1 11  1  0  0  0  0
  2  1  2  0  0  0  0
  2 23  1  0  0  0  0
  3  2  1  0  0  0  0
  4  3  2  0  0  0  0
  4  5  1  0  0  0  0
  5  6  2  0  0  0  0
  5 24  1  0  0  0  0
  6  1  1  0  0  0  0
  6 25  1  0  0  0  0
  7  3  1  0  0  0  0
  7 26  1  0  0  0  0
  8  7  1  0  0  0  0
  8  9  2  0  0  0  0
  9  4  1  0  0  0  0
 10  8  1  0  0  0  0
 10 27  1  0  0  0  0
 11 12  3  0  0  0  0
 13 18  1  0  0  0  0
 13 19  1  0  0  0  0
 14 13  2  0  0  0  0
 14 28  1  0  0  0  0
 15 14  1  0  0  0  0
 15 16  2  0  0  0  0
 15 29  1  0  0  0  0
 16 10  1  0  0  0  0
 16 17  1  0  0  0  0
 17 18  2  0  0  0  0
 17 30  1  0  0  0  0
 18 31  1  0  0  0  0
 19 20  1  0  0  0  0
 19 21  1  0  0  0  0
 19 22  1  0  0  0  0
 20 32  1  0  0  0  0
 20 33  1  0  0  0  0
 20 34  1  0  0  0  0
 21 35  1  0  0  0  0
 21 36  1  0  0  0  0
 21 37  1  0  0  0  0
 22 38  1  0  0  0  0
 22 39  1  0  0  0  0
 22 40  1  0  0  0  0
M  END
