4g19_ligand
 OpenBabel08222323353D

 36 35  0  0  1  0  0  0  0  0999 V2000
  -19.6490   55.1380  125.8500 N   0  3  0  0  0  0  0  0  0  0  0  0
  -20.2940   55.5480  127.0850 C   0  0  2  0  0  0  0  0  0  0  0  0
  -21.5580   54.7670  127.3050 C   0  0  0  0  0  0  0  0  0  0  0  0
  -22.2800   54.4540  126.3220 O   0  5  0  0  0  0  0  0  0  0  0  0
  -21.8940   54.4200  128.4660 O   0  0  0  0  0  0  0  0  0  0  0  0
  -20.6440   57.0240  126.9640 C   0  0  0  0  0  0  0  0  0  0  0  0
  -21.5910   57.4400  128.0820 C   0  0  0  0  0  0  0  0  0  0  0  0
  -21.5920   58.9540  128.1790 C   0  0  0  0  0  0  0  0  0  0  0  0
  -20.9560   59.7310  127.1890 O   0  0  0  0  0  0  0  0  0  0  0  0
  -22.2170   59.5130  129.2130 N   0  0  0  0  0  0  0  0  0  0  0  0
  -22.0220   60.9320  129.4580 C   0  0  2  0  0  0  0  0  0  0  0  0
  -20.8080   61.1830  130.3020 C   0  0  0  0  0  0  0  0  0  0  0  0
  -20.6790   60.4800  131.5060 O   0  0  0  0  0  0  0  0  0  0  0  0
  -23.2530   61.4490  130.1800 C   0  0  0  0  0  0  0  0  0  0  0  0
  -24.6200   61.7590  129.0360 S   0  0  0  0  0  0  0  0  0  0  0  0
  -19.8850   62.0690  129.9150 N   0  0  0  0  0  0  0  0  0  0  0  0
  -18.9450   62.5010  130.9300 C   0  0  0  0  0  0  0  0  0  0  0  0
  -18.1940   63.7570  130.5770 C   0  0  0  0  0  0  0  0  0  0  0  0
  -17.1680   64.0780  131.2130 O   0  5  0  0  0  0  0  0  0  0  0  0
  -18.5800   64.4830  129.6520 O   0  0  0  0  0  0  0  0  0  0  0  0
  -18.8040   55.6717  125.7190 H   0  0  0  0  0  0  0  0  0  0  0  0
  -20.2727   55.3008  125.0751 H   0  0  0  0  0  0  0  0  0  0  0  0
  -19.4226   54.1570  125.8988 H   0  0  0  0  0  0  0  0  0  0  0  0
  -19.6103   55.3895  127.9320 H   0  0  0  0  0  0  0  0  0  0  0  0
  -21.1292   57.2028  125.9931 H   0  0  0  0  0  0  0  0  0  0  0  0
  -19.7226   57.6212  127.0289 H   0  0  0  0  0  0  0  0  0  0  0  0
  -21.2514   57.0081  129.0349 H   0  0  0  0  0  0  0  0  0  0  0  0
  -22.6071   57.0826  127.8589 H   0  0  0  0  0  0  0  0  0  0  0  0
  -22.8078   58.9683  129.8081 H   0  0  0  0  0  0  0  0  0  0  0  0
  -21.9059   61.4555  128.4976 H   0  0  0  0  0  0  0  0  0  0  0  0
  -22.9974   62.3881  130.6925 H   0  0  0  0  0  0  0  0  0  0  0  0
  -23.5715   60.7015  130.9215 H   0  0  0  0  0  0  0  0  0  0  0  0
  -25.4167   62.1000  129.5508 H   0  0  0  0  0  0  0  0  0  0  0  0
  -19.8453   62.4145  128.9774 H   0  0  0  0  0  0  0  0  0  0  0  0
  -18.2140   61.6947  131.0896 H   0  0  0  0  0  0  0  0  0  0  0  0
  -19.5012   62.6814  131.8617 H   0  0  0  0  0  0  0  0  0  0  0  0
  1  2  1  0  0  0  0
  1 21  1  0  0  0  0
  1 22  1  0  0  0  0
  1 23  1  0  0  0  0
  2  3  1  0  0  0  0
  2  6  1  0  0  0  0
  2 24  1  1  0  0  0
  3  4  1  0  0  0  0
  3  5  2  0  0  0  0
  6  7  1  0  0  0  0
  6 25  1  0  0  0  0
  6 26  1  0  0  0  0
  7  8  1  0  0  0  0
  7 27  1  0  0  0  0
  7 28  1  0  0  0  0
  8  9  2  0  0  0  0
  8 10  1  0  0  0  0
 10 11  1  0  0  0  0
 10 29  1  0  0  0  0
 11 12  1  0  0  0  0
 11 14  1  0  0  0  0
 11 30  1  6  0  0  0
 12 13  2  0  0  0  0
 12 16  1  0  0  0  0
 14 15  1  0  0  0  0
 14 31  1  0  0  0  0
 14 32  1  0  0  0  0
 15 33  1  0  0  0  0
 16 17  1  0  0  0  0
 16 34  1  0  0  0  0
 17 18  1  0  0  0  0
 17 35  1  0  0  0  0
 17 36  1  0  0  0  0
 18 19  1  0  0  0  0
 18 20  2  0  0  0  0
M  CHG  3   1   1   4  -1  19  -1
M  END
