4g1f_ligand
 OpenBabel08222323353D

 41 43  0  0  0  0  0  0  0  0999 V2000
   46.2790   -0.6950   13.4330 C   0  0  0  0  0  0  0  0  0  0  0  0
   44.8760   -0.3800   13.1320 N   0  0  0  0  0  0  0  0  0  0  0  0
   44.2490    0.6510   13.8210 C   0  0  0  0  0  0  0  0  0  0  0  0
   44.9040    1.3400   14.7430 N   0  0  0  0  0  0  0  0  0  0  0  0
   44.3330    2.3150   15.4360 C   0  0  0  0  0  0  0  0  0  0  0  0
   45.0890    2.9910   16.3810 N   0  0  0  0  0  0  0  0  0  0  0  0
   42.9990    2.6660   15.2380 C   0  0  0  0  0  0  0  0  0  0  0  0
   42.4020    3.7770   16.0670 C   0  0  0  0  0  0  0  0  0  0  0  0
   41.8760    3.2090   17.3140 N   0  3  0  0  0  0  0  0  0  0  0  0
   42.2440    1.9790   14.2710 C   0  0  0  0  0  0  0  0  0  0  0  0
   40.8110    2.3300   14.0670 C   0  0  0  0  0  0  0  0  0  0  0  0
   40.4140    3.4020   13.2600 C   0  0  0  0  0  0  0  0  0  0  0  0
   39.0670    3.6890   13.1190 C   0  0  0  0  0  0  0  0  0  0  0  0
   38.1090    2.9250   13.7700 C   0  0  0  0  0  0  0  0  0  0  0  0
   38.4940    1.8650   14.5710 C   0  0  0  0  0  0  0  0  0  0  0  0
   39.8370    1.5650   14.7270 C   0  0  0  0  0  0  0  0  0  0  0  0
   40.3520    0.1080   15.8240 Br  0  0  0  0  0  0  0  0  0  0  0  0
   42.8900    0.9410   13.5440 C   0  0  0  0  0  0  0  0  0  0  0  0
   42.2150    0.1330   12.5130 C   0  0  0  0  0  0  0  0  0  0  0  0
   41.0620    0.3580   12.2100 O   0  0  0  0  0  0  0  0  0  0  0  0
   42.9090   -0.8670   11.9020 N   0  0  0  0  0  0  0  0  0  0  0  0
   42.2450   -1.6920   10.8790 C   0  0  0  0  0  0  0  0  0  0  0  0
   44.2000   -1.1120   12.2200 C   0  0  0  0  0  0  0  0  0  0  0  0
   44.7910   -2.0130   11.6480 O   0  0  0  0  0  0  0  0  0  0  0  0
   46.6565    0.0038   14.1940 H   0  0  0  0  0  0  0  0  0  0  0  0
   46.8808   -0.5999   12.5172 H   0  0  0  0  0  0  0  0  0  0  0  0
   46.3502   -1.7247   13.8133 H   0  0  0  0  0  0  0  0  0  0  0  0
   44.6655    3.7520   16.9309 H   0  0  0  0  0  0  0  0  0  0  0  0
   46.0743    2.7323   16.5333 H   0  0  0  0  0  0  0  0  0  0  0  0
   41.5863    4.2581   15.5074 H   0  0  0  0  0  0  0  0  0  0  0  0
   43.1771    4.5223   16.2988 H   0  0  0  0  0  0  0  0  0  0  0  0
   41.4748    3.9441   17.8750 H   0  0  0  0  0  0  0  0  0  0  0  0
   42.6248    2.7676   17.8243 H   0  0  0  0  0  0  0  0  0  0  0  0
   41.1671    2.5254   17.0991 H   0  0  0  0  0  0  0  0  0  0  0  0
   41.1564    4.0039   12.7485 H   0  0  0  0  0  0  0  0  0  0  0  0
   38.7577    4.5188   12.4938 H   0  0  0  0  0  0  0  0  0  0  0  0
   37.0573    3.1591   13.6507 H   0  0  0  0  0  0  0  0  0  0  0  0
   37.7437    1.2685   15.0772 H   0  0  0  0  0  0  0  0  0  0  0  0
   41.2064   -1.3526   10.7517 H   0  0  0  0  0  0  0  0  0  0  0  0
   42.2503   -2.7450   11.1970 H   0  0  0  0  0  0  0  0  0  0  0  0
   42.7821   -1.5946    9.9240 H   0  0  0  0  0  0  0  0  0  0  0  0
  1  2  1  0  0  0  0
  1 25  1  0  0  0  0
  1 26  1  0  0  0  0
  1 27  1  0  0  0  0
  2  3  1  0  0  0  0
  2 23  1  0  0  0  0
  3  4  2  0  0  0  0
  3 18  1  0  0  0  0
  4  5  1  0  0  0  0
  5  6  1  0  0  0  0
  5  7  2  0  0  0  0
  6 28  1  0  0  0  0
  6 29  1  0  0  0  0
  7  8  1  0  0  0  0
  7 10  1  0  0  0  0
  8  9  1  0  0  0  0
  8 30  1  0  0  0  0
  8 31  1  0  0  0  0
  9 32  1  0  0  0  0
  9 33  1  0  0  0  0
  9 34  1  0  0  0  0
 10 11  1  0  0  0  0
 10 18  2  0  0  0  0
 11 12  2  0  0  0  0
 11 16  1  0  0  0  0
 12 13  1  0  0  0  0
 12 35  1  0  0  0  0
 13 14  2  0  0  0  0
 13 36  1  0  0  0  0
 14 15  1  0  0  0  0
 14 37  1  0  0  0  0
 15 16  2  0  0  0  0
 15 38  1  0  0  0  0
 16 17  1  0  0  0  0
 18 19  1  0  0  0  0
 19 20  2  0  0  0  0
 19 21  1  0  0  0  0
 21 22  1  0  0  0  0
 21 23  1  0  0  0  0
 22 39  1  0  0  0  0
 22 40  1  0  0  0  0
 22 41  1  0  0  0  0
 23 24  2  0  0  0  0
M  CHG  1   9   1
M  END
