4g2j_ligand
 OpenBabel08222323353D

 54 58  0  0  1  0  0  0  0  0999 V2000
   74.6260   55.6070   41.8780 C   0  0  0  0  0  0  0  0  0  0  0  0
   74.1550   54.1890   41.5330 C   0  0  2  0  0  0  0  0  0  0  0  0
   75.1000   53.2060   42.2230 C   0  0  0  0  0  0  0  0  0  0  0  0
   74.9610   53.1180   43.6090 N   0  0  0  0  0  0  0  0  0  0  0  0
   75.8190   52.3070   44.4230 C   0  0  0  0  0  0  0  0  0  0  0  0
   75.6320   52.3080   45.6320 O   0  0  0  0  0  0  0  0  0  0  0  0
   76.8030   51.5990   43.6680 C   0  0  0  0  0  0  0  0  0  0  0  0
   77.8690   50.7190   44.0040 C   0  0  0  0  0  0  0  0  0  0  0  0
   78.5380   50.3560   42.8810 N   0  0  0  0  0  0  0  0  0  0  0  0
   77.9130   50.9810   41.8220 N   0  0  0  0  0  0  0  0  0  0  0  0
   76.8460   51.7440   42.2650 C   0  0  0  0  0  0  0  0  0  0  0  0
   75.9870   52.5360   41.4960 N   0  0  0  0  0  0  0  0  0  0  0  0
   78.4180   50.9100   40.4380 C   0  0  0  0  0  0  0  0  0  0  0  0
   79.9130   51.2610   40.3490 C   0  0  0  0  0  0  0  0  0  0  0  0
   80.3530   50.5810   39.0560 C   0  0  0  0  0  0  0  0  0  0  0  0
   79.5460   49.2830   38.9910 C   0  0  0  0  0  0  0  0  0  0  0  0
   78.2890   49.4960   39.8400 C   0  0  0  0  0  0  0  0  0  0  0  0
   74.2300   54.0510   40.0550 N   0  3  1  0  0  0  0  0  0  0  0  0
   73.8490   52.6860   39.5300 C   0  0  0  0  0  0  0  0  0  0  0  0
   72.7270   53.3340   38.6670 C   0  0  2  0  0  0  0  0  0  0  0  0
   73.0680   54.6990   39.3310 C   0  0  0  0  0  0  0  0  0  0  0  0
   71.4370   52.9810   39.0790 O   0  0  0  0  0  0  0  0  0  0  0  0
   70.9500   51.7820   38.6380 C   0  0  0  0  0  0  0  0  0  0  0  0
   69.5830   51.6120   38.8950 C   0  0  0  0  0  0  0  0  0  0  0  0
   68.9790   50.4220   38.5240 C   0  0  0  0  0  0  0  0  0  0  0  0
   69.7190   49.4190   37.9030 C   0  0  0  0  0  0  0  0  0  0  0  0
   71.0700   49.6050   37.6540 C   0  0  0  0  0  0  0  0  0  0  0  0
   71.7050   50.7890   38.0220 C   0  0  0  0  0  0  0  0  0  0  0  0
   74.5858   55.7517   42.9677 H   0  0  0  0  0  0  0  0  0  0  0  0
   73.9706   56.3409   41.3863 H   0  0  0  0  0  0  0  0  0  0  0  0
   75.6594   55.7456   41.5276 H   0  0  0  0  0  0  0  0  0  0  0  0
   73.1232   54.0249   41.8771 H   0  0  0  0  0  0  0  0  0  0  0  0
   74.2336   53.6417   44.0524 H   0  0  0  0  0  0  0  0  0  0  0  0
   78.1118   50.3864   45.0121 H   0  0  0  0  0  0  0  0  0  0  0  0
   77.8394   51.6183   39.8268 H   0  0  0  0  0  0  0  0  0  0  0  0
   80.4644   50.8610   41.2127 H   0  0  0  0  0  0  0  0  0  0  0  0
   80.0601   52.3496   40.2922 H   0  0  0  0  0  0  0  0  0  0  0  0
   81.4311   50.3641   39.0817 H   0  0  0  0  0  0  0  0  0  0  0  0
   80.1279   51.2190   38.1887 H   0  0  0  0  0  0  0  0  0  0  0  0
   80.1383   48.4489   39.3953 H   0  0  0  0  0  0  0  0  0  0  0  0
   79.2663   49.0634   37.9501 H   0  0  0  0  0  0  0  0  0  0  0  0
   77.3877   49.4264   39.2133 H   0  0  0  0  0  0  0  0  0  0  0  0
   78.2371   48.7447   40.6418 H   0  0  0  0  0  0  0  0  0  0  0  0
   75.1331   54.3658   39.7366 H   0  0  0  0  0  0  0  0  0  0  0  0
   73.4797   51.9946   40.3017 H   0  0  0  0  0  0  0  0  0  0  0  0
   74.6388   52.1933   38.9439 H   0  0  0  0  0  0  0  0  0  0  0  0
   72.8530   53.2562   37.5770 H   0  0  0  0  0  0  0  0  0  0  0  0
   73.3629   55.4841   38.6193 H   0  0  0  0  0  0  0  0  0  0  0  0
   72.2816   55.0842   39.9968 H   0  0  0  0  0  0  0  0  0  0  0  0
   69.0093   52.3966   39.3749 H   0  0  0  0  0  0  0  0  0  0  0  0
   67.9234   50.2705   38.7183 H   0  0  0  0  0  0  0  0  0  0  0  0
   69.2380   48.4916   37.6139 H   0  0  0  0  0  0  0  0  0  0  0  0
   71.6385   48.8205   37.1676 H   0  0  0  0  0  0  0  0  0  0  0  0
   72.7626   50.9333   37.8328 H   0  0  0  0  0  0  0  0  0  0  0  0
  1  2  1  0  0  0  0
  1 29  1  0  0  0  0
  1 30  1  0  0  0  0
  1 31  1  0  0  0  0
  2  3  1  0  0  0  0
  2 18  1  0  0  0  0
  2 32  1  1  0  0  0
  3  4  1  0  0  0  0
  3 12  2  0  0  0  0
  4  5  1  0  0  0  0
  4 33  1  0  0  0  0
  5  6  2  0  0  0  0
  5  7  1  0  0  0  0
  7  8  1  0  0  0  0
  7 11  2  0  0  0  0
  8  9  2  0  0  0  0
  8 34  1  0  0  0  0
  9 10  1  0  0  0  0
 10 11  1  0  0  0  0
 10 13  1  0  0  0  0
 11 12  1  0  0  0  0
 13 14  1  0  0  0  0
 13 17  1  0  0  0  0
 13 35  1  0  0  0  0
 14 15  1  0  0  0  0
 14 36  1  0  0  0  0
 14 37  1  0  0  0  0
 15 16  1  0  0  0  0
 15 38  1  0  0  0  0
 15 39  1  0  0  0  0
 16 17  1  0  0  0  0
 16 40  1  0  0  0  0
 16 41  1  0  0  0  0
 17 42  1  0  0  0  0
 17 43  1  0  0  0  0
 18 19  1  0  0  0  0
 18 21  1  0  0  0  0
 18 44  1  6  0  0  0
 19 20  1  0  0  0  0
 19 45  1  0  0  0  0
 19 46  1  0  0  0  0
 20 21  1  0  0  0  0
 20 22  1  0  0  0  0
 20 47  1  6  0  0  0
 21 48  1  0  0  0  0
 21 49  1  0  0  0  0
 22 23  1  0  0  0  0
 23 24  2  0  0  0  0
 23 28  1  0  0  0  0
 24 25  1  0  0  0  0
 24 50  1  0  0  0  0
 25 26  2  0  0  0  0
 25 51  1  0  0  0  0
 26 27  1  0  0  0  0
 26 52  1  0  0  0  0
 27 28  2  0  0  0  0
 27 53  1  0  0  0  0
 28 54  1  0  0  0  0
M  CHG  1  18   1
M  END
