4g2r_ligand
 OpenBabel08222323353D

 34 35  0  0  1  0  0  0  0  0999 V2000
  -32.3040  -24.4510   63.7820 O   0  5  0  0  0  0  0  0  0  0  0  0
  -32.7770  -25.6300   63.7910 C   0  0  0  0  0  0  0  0  0  0  0  0
  -32.2030  -26.5370   64.4610 O   0  0  0  0  0  0  0  0  0  0  0  0
  -34.0300  -25.9710   63.0380 C   0  0  1  0  0  0  0  0  0  0  0  0
  -35.1810  -25.7240   63.9560 C   0  0  0  0  0  0  0  0  0  0  0  0
  -34.2120  -25.1880   61.9170 O   0  0  0  0  0  0  0  0  0  0  0  0
  -33.7010  -25.4820   60.6720 C   0  0  0  0  0  0  0  0  0  0  0  0
  -34.2470  -24.8280   59.5740 C   0  0  0  0  0  0  0  0  0  0  0  0
  -33.7570  -25.0880   58.3110 C   0  0  0  0  0  0  0  0  0  0  0  0
  -32.6630  -26.3910   60.5160 C   0  0  0  0  0  0  0  0  0  0  0  0
  -32.1760  -26.6540   59.2450 C   0  0  0  0  0  0  0  0  0  0  0  0
  -32.7310  -26.0170   58.1460 C   0  0  0  0  0  0  0  0  0  0  0  0
  -32.2060  -26.2650   56.8900 O   0  0  0  0  0  0  0  0  0  0  0  0
  -33.0070  -26.9410   55.9840 C   0  0  0  0  0  0  0  0  0  0  0  0
  -34.3270  -27.1370   56.1650 N   0  0  0  0  0  0  0  0  0  0  0  0
  -35.0550  -27.8070   55.2720 C   0  0  0  0  0  0  0  0  0  0  0  0
  -34.4790  -28.2890   54.1020 C   0  0  0  0  0  0  0  0  0  0  0  0
  -35.3270  -29.0370   53.1270 C   0  0  0  0  0  0  0  0  0  0  0  0
  -34.6210  -29.2090   52.0120 F   0  0  0  0  0  0  0  0  0  0  0  0
  -36.4410  -28.3380   52.9020 F   0  0  0  0  0  0  0  0  0  0  0  0
  -35.6350  -30.2360   53.6310 F   0  0  0  0  0  0  0  0  0  0  0  0
  -33.1070  -28.0910   53.8810 C   0  0  0  0  0  0  0  0  0  0  0  0
  -32.3600  -27.4070   54.8500 C   0  0  0  0  0  0  0  0  0  0  0  0
  -30.6480  -27.0940   54.7140 Cl  0  0  0  0  0  0  0  0  0  0  0  0
  -33.9986  -27.0293   62.7396 H   0  0  0  0  0  0  0  0  0  0  0  0
  -36.1212  -25.9636   63.4378 H   0  0  0  0  0  0  0  0  0  0  0  0
  -35.1883  -24.6665   64.2586 H   0  0  0  0  0  0  0  0  0  0  0  0
  -35.0817  -26.3600   64.8480 H   0  0  0  0  0  0  0  0  0  0  0  0
  -35.0540  -24.1170   59.7094 H   0  0  0  0  0  0  0  0  0  0  0  0
  -34.1680  -24.5722   57.4507 H   0  0  0  0  0  0  0  0  0  0  0  0
  -32.2378  -26.8899   61.3793 H   0  0  0  0  0  0  0  0  0  0  0  0
  -31.3620  -27.3571   59.1107 H   0  0  0  0  0  0  0  0  0  0  0  0
  -36.1087  -27.9782   55.4602 H   0  0  0  0  0  0  0  0  0  0  0  0
  -32.6341  -28.4601   52.9781 H   0  0  0  0  0  0  0  0  0  0  0  0
  1  2  1  0  0  0  0
  2  3  2  0  0  0  0
  2  4  1  0  0  0  0
  4  5  1  0  0  0  0
  4  6  1  0  0  0  0
  4 25  1  6  0  0  0
  5 26  1  0  0  0  0
  5 27  1  0  0  0  0
  5 28  1  0  0  0  0
  6  7  1  0  0  0  0
  7  8  2  0  0  0  0
  7 10  1  0  0  0  0
  8  9  1  0  0  0  0
  8 29  1  0  0  0  0
  9 12  2  0  0  0  0
  9 30  1  0  0  0  0
 10 11  2  0  0  0  0
 10 31  1  0  0  0  0
 11 12  1  0  0  0  0
 11 32  1  0  0  0  0
 12 13  1  0  0  0  0
 13 14  1  0  0  0  0
 14 15  2  0  0  0  0
 14 23  1  0  0  0  0
 15 16  1  0  0  0  0
 16 17  2  0  0  0  0
 16 33  1  0  0  0  0
 17 18  1  0  0  0  0
 17 22  1  0  0  0  0
 18 19  1  0  0  0  0
 18 20  1  0  0  0  0
 18 21  1  0  0  0  0
 22 23  2  0  0  0  0
 22 34  1  0  0  0  0
 23 24  1  0  0  0  0
M  CHG  1   1  -1
M  END
