4g2w_ligand
 OpenBabel08222323353D

 64 66  0  0  0  0  0  0  0  0999 V2000
   25.2740  -20.4470   22.7100 C   0  0  0  0  0  0  0  0  0  0  0  0
   23.9730  -21.1600   22.4980 C   0  0  0  0  0  0  0  0  0  0  0  0
   23.9090  -21.8460   21.2370 N   0  3  0  0  0  0  0  0  0  0  0  0
   23.4160  -23.2150   21.2580 C   0  0  0  0  0  0  0  0  0  0  0  0
   25.0440  -21.5520   20.4150 C   0  0  0  0  0  0  0  0  0  0  0  0
   26.3350  -21.8740   21.1040 C   0  0  0  0  0  0  0  0  0  0  0  0
   26.4370  -21.2250   22.3790 N   0  0  0  0  0  0  0  0  0  0  0  0
   27.9190  -20.6760   22.7910 S   0  0  0  0  0  0  0  0  0  0  0  0
   28.0710  -20.5790   24.2570 O   0  0  0  0  0  0  0  0  0  0  0  0
   28.9180  -21.5980   22.2020 O   0  0  0  0  0  0  0  0  0  0  0  0
   28.0580  -19.0290   22.1340 C   0  0  0  0  0  0  0  0  0  0  0  0
   28.3690  -18.8750   20.7700 C   0  0  0  0  0  0  0  0  0  0  0  0
   27.8430  -17.9220   22.9580 C   0  0  0  0  0  0  0  0  0  0  0  0
   27.9490  -16.6220   22.4100 C   0  0  0  0  0  0  0  0  0  0  0  0
   28.2580  -16.4580   21.0430 C   0  0  0  0  0  0  0  0  0  0  0  0
   28.3800  -15.1760   20.4820 O   0  0  0  0  0  0  0  0  0  0  0  0
   27.5360  -14.1100   20.8610 C   0  0  0  0  0  0  0  0  0  0  0  0
   27.8670  -12.7420   20.2900 C   0  0  0  0  0  0  0  0  0  0  0  0
   29.0630  -12.6440   19.3190 C   0  0  0  0  0  0  0  0  0  0  0  0
   28.4620  -17.5930   20.2330 C   0  0  0  0  0  0  0  0  0  0  0  0
   28.8330  -17.4900   18.7560 C   0  0  0  0  0  0  0  0  0  0  0  0
   28.1900  -18.2760   17.8700 N   0  0  0  0  0  0  0  0  0  0  0  0
   29.8250  -16.6580   18.3710 N   0  0  0  0  0  0  0  0  0  0  0  0
   30.1790  -16.5700   17.0490 C   0  0  0  0  0  0  0  0  0  0  0  0
   31.1870  -15.6950   16.6870 O   0  0  0  0  0  0  0  0  0  0  0  0
   29.5130  -17.3700   16.0870 C   0  0  0  0  0  0  0  0  0  0  0  0
   29.9060  -17.2930   14.5960 C   0  0  0  0  0  0  0  0  0  0  0  0
   31.0950  -18.1150   14.1860 C   0  0  0  0  0  0  0  0  0  0  0  0
   28.4900  -18.2530   16.5540 C   0  0  0  0  0  0  0  0  0  0  0  0
   27.6830  -19.1590   15.6430 C   0  0  0  0  0  0  0  0  0  0  0  0
   26.3560  -18.5030   15.2810 C   0  0  0  0  0  0  0  0  0  0  0  0
   25.3413  -20.1612   23.7701 H   0  0  0  0  0  0  0  0  0  0  0  0
   25.2763  -19.5416   22.0853 H   0  0  0  0  0  0  0  0  0  0  0  0
   23.1581  -20.4222   22.5376 H   0  0  0  0  0  0  0  0  0  0  0  0
   23.8408  -21.8960   23.3047 H   0  0  0  0  0  0  0  0  0  0  0  0
   23.1613  -21.3677   20.7592 H   0  0  0  0  0  0  0  0  0  0  0  0
   23.4178  -23.6211   20.2357 H   0  0  0  0  0  0  0  0  0  0  0  0
   22.3908  -23.2295   21.6564 H   0  0  0  0  0  0  0  0  0  0  0  0
   24.0667  -23.8293   21.8977 H   0  0  0  0  0  0  0  0  0  0  0  0
   25.0329  -20.4810   20.1642 H   0  0  0  0  0  0  0  0  0  0  0  0
   24.9768  -22.1456   19.4914 H   0  0  0  0  0  0  0  0  0  0  0  0
   27.1695  -21.5427   20.4686 H   0  0  0  0  0  0  0  0  0  0  0  0
   26.3969  -22.9621   21.2529 H   0  0  0  0  0  0  0  0  0  0  0  0
   28.5344  -19.7445   20.1442 H   0  0  0  0  0  0  0  0  0  0  0  0
   27.5978  -18.0573   24.0052 H   0  0  0  0  0  0  0  0  0  0  0  0
   27.7931  -15.7533   23.0393 H   0  0  0  0  0  0  0  0  0  0  0  0
   27.5709  -14.0308   21.9576 H   0  0  0  0  0  0  0  0  0  0  0  0
   26.5140  -14.3651   20.5441 H   0  0  0  0  0  0  0  0  0  0  0  0
   28.0757  -12.0730   21.1379 H   0  0  0  0  0  0  0  0  0  0  0  0
   26.9762  -12.3854   19.7521 H   0  0  0  0  0  0  0  0  0  0  0  0
   29.1828  -11.6015   18.9889 H   0  0  0  0  0  0  0  0  0  0  0  0
   28.8795  -13.2864   18.4452 H   0  0  0  0  0  0  0  0  0  0  0  0
   29.9790  -12.9741   19.8309 H   0  0  0  0  0  0  0  0  0  0  0  0
   31.3225  -15.7408   15.7478 H   0  0  0  0  0  0  0  0  0  0  0  0
   30.1260  -16.2415   14.3596 H   0  0  0  0  0  0  0  0  0  0  0  0
   29.0432  -17.6296   14.0025 H   0  0  0  0  0  0  0  0  0  0  0  0
   31.2792  -17.9818   13.1097 H   0  0  0  0  0  0  0  0  0  0  0  0
   30.8967  -19.1765   14.3954 H   0  0  0  0  0  0  0  0  0  0  0  0
   31.9795  -17.7884   14.7525 H   0  0  0  0  0  0  0  0  0  0  0  0
   27.4879  -20.1108   16.1588 H   0  0  0  0  0  0  0  0  0  0  0  0
   28.2552  -19.3508   14.7233 H   0  0  0  0  0  0  0  0  0  0  0  0
   25.7842  -19.1721   14.6212 H   0  0  0  0  0  0  0  0  0  0  0  0
   26.5466  -17.5518   14.7625 H   0  0  0  0  0  0  0  0  0  0  0  0
   25.7793  -18.3117   16.1980 H   0  0  0  0  0  0  0  0  0  0  0  0
  1  2  1  0  0  0  0
  1  7  1  0  0  0  0
  1 32  1  0  0  0  0
  1 33  1  0  0  0  0
  2  3  1  0  0  0  0
  2 34  1  0  0  0  0
  2 35  1  0  0  0  0
  3  4  1  0  0  0  0
  3  5  1  0  0  0  0
  3 36  1  0  0  0  0
  4 37  1  0  0  0  0
  4 38  1  0  0  0  0
  4 39  1  0  0  0  0
  5  6  1  0  0  0  0
  5 40  1  0  0  0  0
  5 41  1  0  0  0  0
  6  7  1  0  0  0  0
  6 42  1  0  0  0  0
  6 43  1  0  0  0  0
  7  8  1  0  0  0  0
  8  9  2  0  0  0  0
  8 10  2  0  0  0  0
  8 11  1  0  0  0  0
 11 12  2  0  0  0  0
 11 13  1  0  0  0  0
 12 20  1  0  0  0  0
 12 44  1  0  0  0  0
 13 14  2  0  0  0  0
 13 45  1  0  0  0  0
 14 15  1  0  0  0  0
 14 46  1  0  0  0  0
 15 16  1  0  0  0  0
 15 20  2  0  0  0  0
 16 17  1  0  0  0  0
 17 18  1  0  0  0  0
 17 47  1  0  0  0  0
 17 48  1  0  0  0  0
 18 19  1  0  0  0  0
 18 49  1  0  0  0  0
 18 50  1  0  0  0  0
 19 51  1  0  0  0  0
 19 52  1  0  0  0  0
 19 53  1  0  0  0  0
 20 21  1  0  0  0  0
 21 22  2  0  0  0  0
 21 23  1  0  0  0  0
 22 29  1  0  0  0  0
 23 24  2  0  0  0  0
 24 25  1  0  0  0  0
 24 26  1  0  0  0  0
 25 54  1  0  0  0  0
 26 27  1  0  0  0  0
 26 29  2  0  0  0  0
 27 28  1  0  0  0  0
 27 55  1  0  0  0  0
 27 56  1  0  0  0  0
 28 57  1  0  0  0  0
 28 58  1  0  0  0  0
 28 59  1  0  0  0  0
 29 30  1  0  0  0  0
 30 31  1  0  0  0  0
 30 60  1  0  0  0  0
 30 61  1  0  0  0  0
 31 62  1  0  0  0  0
 31 63  1  0  0  0  0
 31 64  1  0  0  0  0
M  CHG  1   3   1
M  END
