4g2y_ligand
 OpenBabel08222323353D

 59 62  0  0  0  0  0  0  0  0999 V2000
   32.0830  -31.8340  -44.2420 C   0  0  0  0  0  0  0  0  0  0  0  0
   30.6780  -32.3160  -44.0860 C   0  0  0  0  0  0  0  0  0  0  0  0
   30.1270  -32.0730  -42.7810 N   0  3  0  0  0  0  0  0  0  0  0  0
   28.8000  -32.6380  -42.5390 C   0  0  0  0  0  0  0  0  0  0  0  0
   30.3720  -30.7490  -42.3040 C   0  0  0  0  0  0  0  0  0  0  0  0
   31.8060  -30.3500  -42.4110 C   0  0  0  0  0  0  0  0  0  0  0  0
   32.2590  -30.5050  -43.7560 N   0  0  0  0  0  0  0  0  0  0  0  0
   33.4770  -29.5600  -44.3360 S   0  0  0  0  0  0  0  0  0  0  0  0
   33.3270  -28.1730  -43.8030 O   0  0  0  0  0  0  0  0  0  0  0  0
   33.4640  -29.5370  -45.8260 O   0  0  0  0  0  0  0  0  0  0  0  0
   35.0130  -30.3230  -43.7830 C   0  0  0  0  0  0  0  0  0  0  0  0
   35.4970  -30.0950  -42.4980 C   0  0  0  0  0  0  0  0  0  0  0  0
   35.7120  -31.1570  -44.6370 C   0  0  0  0  0  0  0  0  0  0  0  0
   36.8940  -31.7570  -44.2100 C   0  0  0  0  0  0  0  0  0  0  0  0
   37.3780  -31.5260  -42.9200 C   0  0  0  0  0  0  0  0  0  0  0  0
   38.5430  -32.1210  -42.5200 O   0  0  0  0  0  0  0  0  0  0  0  0
   39.2410  -33.0060  -43.3450 C   0  0  0  0  0  0  0  0  0  0  0  0
   40.2930  -33.7090  -42.5700 C   0  0  0  0  0  0  0  0  0  0  0  0
   41.0780  -32.7100  -41.7130 C   0  0  0  0  0  0  0  0  0  0  0  0
   36.6640  -30.7130  -42.0580 C   0  0  0  0  0  0  0  0  0  0  0  0
   37.1170  -30.3960  -40.7140 C   0  0  0  0  0  0  0  0  0  0  0  0
   36.2270  -30.2610  -39.6840 N   0  0  0  0  0  0  0  0  0  0  0  0
   36.6810  -29.9070  -38.4120 C   0  0  0  0  0  0  0  0  0  0  0  0
   36.0160  -29.6900  -37.0910 C   0  0  0  0  0  0  0  0  0  0  0  0
   37.0110  -28.9370  -36.2720 C   0  0  0  0  0  0  0  0  0  0  0  0
   38.3550  -29.3240  -36.7740 C   0  0  0  0  0  0  0  0  0  0  0  0
   38.1010  -29.6820  -38.2080 C   0  0  0  0  0  0  0  0  0  0  0  0
   38.9920  -29.8370  -39.3030 C   0  0  0  0  0  0  0  0  0  0  0  0
   40.3360  -29.6270  -39.1130 O   0  0  0  0  0  0  0  0  0  0  0  0
   38.4820  -30.1760  -40.5270 N   0  0  0  0  0  0  0  0  0  0  0  0
   32.3482  -31.8578  -45.3093 H   0  0  0  0  0  0  0  0  0  0  0  0
   32.7510  -32.5058  -43.6831 H   0  0  0  0  0  0  0  0  0  0  0  0
   30.6592  -33.3995  -44.2749 H   0  0  0  0  0  0  0  0  0  0  0  0
   30.0500  -31.8032  -44.8294 H   0  0  0  0  0  0  0  0  0  0  0  0
   30.7102  -32.6351  -42.1810 H   0  0  0  0  0  0  0  0  0  0  0  0
   28.4781  -32.3928  -41.5161 H   0  0  0  0  0  0  0  0  0  0  0  0
   28.8393  -33.7307  -42.6589 H   0  0  0  0  0  0  0  0  0  0  0  0
   28.0845  -32.2154  -43.2598 H   0  0  0  0  0  0  0  0  0  0  0  0
   30.0705  -30.6950  -41.2475 H   0  0  0  0  0  0  0  0  0  0  0  0
   29.7668  -30.0454  -42.8945 H   0  0  0  0  0  0  0  0  0  0  0  0
   32.4110  -30.9856  -41.7478 H   0  0  0  0  0  0  0  0  0  0  0  0
   31.9144  -29.2977  -42.1096 H   0  0  0  0  0  0  0  0  0  0  0  0
   34.9593  -29.4290  -41.8328 H   0  0  0  0  0  0  0  0  0  0  0  0
   35.3400  -31.3434  -45.6380 H   0  0  0  0  0  0  0  0  0  0  0  0
   37.4418  -32.4071  -44.8826 H   0  0  0  0  0  0  0  0  0  0  0  0
   39.7095  -32.4440  -44.1664 H   0  0  0  0  0  0  0  0  0  0  0  0
   38.5401  -33.7455  -43.7596 H   0  0  0  0  0  0  0  0  0  0  0  0
   40.9820  -34.2108  -43.2653 H   0  0  0  0  0  0  0  0  0  0  0  0
   39.8227  -34.4577  -41.9156 H   0  0  0  0  0  0  0  0  0  0  0  0
   41.8535  -33.2445  -41.1447 H   0  0  0  0  0  0  0  0  0  0  0  0
   40.3924  -32.2077  -41.0147 H   0  0  0  0  0  0  0  0  0  0  0  0
   41.5517  -31.9608  -42.3644 H   0  0  0  0  0  0  0  0  0  0  0  0
   35.7759  -30.6531  -36.6170 H   0  0  0  0  0  0  0  0  0  0  0  0
   35.0944  -29.1024  -37.2148 H   0  0  0  0  0  0  0  0  0  0  0  0
   36.9104  -29.2067  -35.2103 H   0  0  0  0  0  0  0  0  0  0  0  0
   36.8588  -27.8541  -36.3912 H   0  0  0  0  0  0  0  0  0  0  0  0
   38.7498  -30.1865  -36.2171 H   0  0  0  0  0  0  0  0  0  0  0  0
   39.0607  -28.4838  -36.6973 H   0  0  0  0  0  0  0  0  0  0  0  0
   39.1025  -30.2682  -41.3058 H   0  0  0  0  0  0  0  0  0  0  0  0
  1  2  1  0  0  0  0
  1  7  1  0  0  0  0
  1 31  1  0  0  0  0
  1 32  1  0  0  0  0
  2  3  1  0  0  0  0
  2 33  1  0  0  0  0
  2 34  1  0  0  0  0
  3  4  1  0  0  0  0
  3  5  1  0  0  0  0
  3 35  1  0  0  0  0
  4 36  1  0  0  0  0
  4 37  1  0  0  0  0
  4 38  1  0  0  0  0
  5  6  1  0  0  0  0
  5 39  1  0  0  0  0
  5 40  1  0  0  0  0
  6  7  1  0  0  0  0
  6 41  1  0  0  0  0
  6 42  1  0  0  0  0
  7  8  1  0  0  0  0
  8  9  2  0  0  0  0
  8 10  2  0  0  0  0
  8 11  1  0  0  0  0
 11 12  2  0  0  0  0
 11 13  1  0  0  0  0
 12 20  1  0  0  0  0
 12 43  1  0  0  0  0
 13 14  2  0  0  0  0
 13 44  1  0  0  0  0
 14 15  1  0  0  0  0
 14 45  1  0  0  0  0
 15 16  1  0  0  0  0
 15 20  2  0  0  0  0
 16 17  1  0  0  0  0
 17 18  1  0  0  0  0
 17 46  1  0  0  0  0
 17 47  1  0  0  0  0
 18 19  1  0  0  0  0
 18 48  1  0  0  0  0
 18 49  1  0  0  0  0
 19 50  1  0  0  0  0
 19 51  1  0  0  0  0
 19 52  1  0  0  0  0
 20 21  1  0  0  0  0
 21 22  2  0  0  0  0
 21 30  1  0  0  0  0
 22 23  1  0  0  0  0
 23 24  1  0  0  0  0
 23 27  2  0  0  0  0
 24 25  1  0  0  0  0
 24 53  1  0  0  0  0
 24 54  1  0  0  0  0
 25 26  1  0  0  0  0
 25 55  1  0  0  0  0
 25 56  1  0  0  0  0
 26 27  1  0  0  0  0
 26 57  1  0  0  0  0
 26 58  1  0  0  0  0
 27 28  1  0  0  0  0
 28 29  2  0  0  0  0
 28 30  1  0  0  0  0
 30 59  1  0  0  0  0
M  CHG  1   3   1
M  END
