4g5y_ligand
 OpenBabel08222323353D

 20 20  0  0  0  0  0  0  0  0999 V2000
   13.8780   10.2280    6.7540 C   0  0  0  0  0  0  0  0  0  0  0  0
   13.9580    9.2120    7.7850 N   0  0  0  0  0  0  0  0  0  0  0  0
   13.7960    7.7860    7.4870 C   0  0  0  0  0  0  0  0  0  0  0  0
   13.2480    9.7080    9.2370 S   0  0  0  0  0  0  0  0  0  0  0  0
   12.4750   10.9840    9.1880 O   0  0  0  0  0  0  0  0  0  0  0  0
   12.5210    8.5750    9.8230 O   0  0  0  0  0  0  0  0  0  0  0  0
   14.7200    9.9480   10.0240 C   0  0  0  0  0  0  0  0  0  0  0  0
   15.4300    8.9000   10.4560 C   0  0  0  0  0  0  0  0  0  0  0  0
   16.5730    9.2870   11.0480 C   0  0  0  0  0  0  0  0  0  0  0  0
   16.6650   11.0170   10.9340 S   0  0  0  0  0  0  0  0  0  0  0  0
   15.1830   11.1930   10.1730 C   0  0  0  0  0  0  0  0  0  0  0  0
   14.3527    9.8553    5.8344 H   0  0  0  0  0  0  0  0  0  0  0  0
   14.3981   11.1361    7.0929 H   0  0  0  0  0  0  0  0  0  0  0  0
   12.8226   10.4635    6.5523 H   0  0  0  0  0  0  0  0  0  0  0  0
   14.2859    7.5535    6.5300 H   0  0  0  0  0  0  0  0  0  0  0  0
   12.7249    7.5450    7.4186 H   0  0  0  0  0  0  0  0  0  0  0  0
   14.2557    7.1893    8.2887 H   0  0  0  0  0  0  0  0  0  0  0  0
   15.1205    7.8621   10.3422 H   0  0  0  0  0  0  0  0  0  0  0  0
   17.3085    8.6335   11.5148 H   0  0  0  0  0  0  0  0  0  0  0  0
   14.7014   12.1203    9.8663 H   0  0  0  0  0  0  0  0  0  0  0  0
  1  2  1  0  0  0  0
  1 12  1  0  0  0  0
  1 13  1  0  0  0  0
  1 14  1  0  0  0  0
  2  3  1  0  0  0  0
  2  4  1  0  0  0  0
  3 15  1  0  0  0  0
  3 16  1  0  0  0  0
  3 17  1  0  0  0  0
  4  5  2  0  0  0  0
  4  6  2  0  0  0  0
  4  7  1  0  0  0  0
  7  8  1  0  0  0  0
  7 11  2  0  0  0  0
  8  9  2  0  0  0  0
  8 18  1  0  0  0  0
  9 10  1  0  0  0  0
  9 19  1  0  0  0  0
 10 11  1  0  0  0  0
 11 20  1  0  0  0  0
M  END
