4gd6_ligand
 OpenBabel08222323353D

 53 55  0  0  1  0  0  0  0  0999 V2000
   42.8310   60.0590   -1.5950 C   0  0  0  0  0  0  0  0  0  0  0  0
   44.0230   60.1860   -2.3030 C   0  0  0  0  0  0  0  0  0  0  0  0
   45.0610   60.9590   -1.7740 C   0  0  0  0  0  0  0  0  0  0  0  0
   44.9260   61.6090   -0.5520 C   0  0  0  0  0  0  0  0  0  0  0  0
   43.7340   61.4900    0.1550 C   0  0  0  0  0  0  0  0  0  0  0  0
   42.7030   60.7130   -0.3690 C   0  0  0  0  0  0  0  0  0  0  0  0
   41.4170   60.6000    0.4240 C   0  0  0  0  0  0  0  0  0  0  0  0
   40.3410   61.5020   -0.1890 C   0  0  0  0  0  0  0  0  0  0  0  0
   40.6030   62.5960   -0.6920 O   0  0  0  0  0  0  0  0  0  0  0  0
   39.0830   61.0250   -0.1420 O   0  0  0  0  0  0  0  0  0  0  0  0
   38.0020   61.8400   -0.5610 C   0  0  0  0  0  0  0  0  0  0  0  0
   36.7740   61.3020    0.1860 C   0  0  1  0  0  0  0  0  0  0  0  0
   35.3330   61.6210   -0.8840 S   0  0  0  0  0  0  0  0  0  0  0  0
   35.6760   60.9370   -2.1730 O   0  0  0  0  0  0  0  0  0  0  0  0
   35.2850   63.1100   -1.0910 O   0  0  0  0  0  0  0  0  0  0  0  0
   36.8640   59.7850    0.4670 C   0  0  0  0  0  0  0  0  0  0  0  0
   36.5630   62.1480    1.4550 C   0  0  2  0  0  0  0  0  0  0  0  0
   37.7550   62.1050    2.4430 C   0  0  0  0  0  0  0  0  0  0  0  0
   37.7740   61.1900    3.2950 O   0  5  0  0  0  0  0  0  0  0  0  0
   38.6190   63.0080    2.2890 O   0  0  0  0  0  0  0  0  0  0  0  0
   35.2630   61.8360    2.1030 N   0  0  0  0  0  0  0  0  0  0  0  0
   34.8120   62.6310    3.0800 C   0  0  0  0  0  0  0  0  0  0  0  0
   34.6950   64.0140    3.0380 N   0  0  0  0  0  0  0  0  0  0  0  0
   34.9570   64.9650    2.0320 C   0  0  0  0  0  0  0  0  0  0  0  0
   34.7130   66.3070    2.3080 C   0  0  0  0  0  0  0  0  0  0  0  0
   34.2220   66.7160    3.5470 C   0  0  0  0  0  0  0  0  0  0  0  0
   33.9530   65.7730    4.5430 C   0  0  0  0  0  0  0  0  0  0  0  0
   34.1770   64.4130    4.2940 C   0  0  0  0  0  0  0  0  0  0  0  0
   33.9950   63.3020    5.0490 C   0  0  0  0  0  0  0  0  0  0  0  0
   34.3720   62.2320    4.3260 C   0  0  0  0  0  0  0  0  0  0  0  0
   34.3310   60.7680    4.7470 C   0  0  0  0  0  0  0  0  0  0  0  0
   34.5110   59.8470    3.9510 O   0  0  0  0  0  0  0  0  0  0  0  0
   42.0164   59.4624   -1.9893 H   0  0  0  0  0  0  0  0  0  0  0  0
   44.1456   59.6887   -3.2584 H   0  0  0  0  0  0  0  0  0  0  0  0
   45.9886   61.0535   -2.3269 H   0  0  0  0  0  0  0  0  0  0  0  0
   45.7414   62.2024   -0.1545 H   0  0  0  0  0  0  0  0  0  0  0  0
   43.6084   61.9971    1.1048 H   0  0  0  0  0  0  0  0  0  0  0  0
   41.6019   60.9087    1.4635 H   0  0  0  0  0  0  0  0  0  0  0  0
   41.0697   59.5564    0.4077 H   0  0  0  0  0  0  0  0  0  0  0  0
   37.8573   61.7586   -1.6484 H   0  0  0  0  0  0  0  0  0  0  0  0
   38.1857   62.8909   -0.2931 H   0  0  0  0  0  0  0  0  0  0  0  0
   34.4720   61.2743   -0.4910 H   0  0  0  0  0  0  0  0  0  0  0  0
   37.7313   59.5825    1.1125 H   0  0  0  0  0  0  0  0  0  0  0  0
   36.9793   59.2423   -0.4828 H   0  0  0  0  0  0  0  0  0  0  0  0
   35.9455   59.4504    0.9714 H   0  0  0  0  0  0  0  0  0  0  0  0
   36.4944   63.1922    1.1159 H   0  0  0  0  0  0  0  0  0  0  0  0
   34.7151   61.0169    1.8035 H   0  0  0  0  0  0  0  0  0  0  0  0
   35.3416   64.6570    1.0608 H   0  0  0  0  0  0  0  0  0  0  0  0
   34.9098   67.0535    1.5399 H   0  0  0  0  0  0  0  0  0  0  0  0
   34.0475   67.7736    3.7395 H   0  0  0  0  0  0  0  0  0  0  0  0
   33.5702   66.0949    5.5103 H   0  0  0  0  0  0  0  0  0  0  0  0
   33.6094   63.2795    6.0672 H   0  0  0  0  0  0  0  0  0  0  0  0
   34.1351   60.5279    5.7910 H   0  0  0  0  0  0  0  0  0  0  0  0
  1  2  2  0  0  0  0
  1  6  1  0  0  0  0
  1 33  1  0  0  0  0
  2  3  1  0  0  0  0
  2 34  1  0  0  0  0
  3  4  2  0  0  0  0
  3 35  1  0  0  0  0
  4  5  1  0  0  0  0
  4 36  1  0  0  0  0
  5  6  2  0  0  0  0
  5 37  1  0  0  0  0
  6  7  1  0  0  0  0
  7  8  1  0  0  0  0
  7 38  1  0  0  0  0
  7 39  1  0  0  0  0
  8  9  2  0  0  0  0
  8 10  1  0  0  0  0
 10 11  1  0  0  0  0
 11 40  1  0  0  0  0
 11 41  1  0  0  0  0
 12 11  1  6  0  0  0
 12 13  1  0  0  0  0
 12 16  1  0  0  0  0
 12 17  1  0  0  0  0
 13 14  2  0  0  0  0
 13 15  2  0  0  0  0
 13 42  1  0  0  0  0
 16 43  1  0  0  0  0
 16 44  1  0  0  0  0
 16 45  1  0  0  0  0
 17 18  1  0  0  0  0
 17 21  1  0  0  0  0
 17 46  1  6  0  0  0
 18 19  1  0  0  0  0
 18 20  2  0  0  0  0
 21 22  1  0  0  0  0
 21 47  1  0  0  0  0
 22 23  1  0  0  0  0
 22 30  2  0  0  0  0
 23 24  1  0  0  0  0
 23 28  1  0  0  0  0
 24 25  2  0  0  0  0
 24 48  1  0  0  0  0
 25 26  1  0  0  0  0
 25 49  1  0  0  0  0
 26 27  2  0  0  0  0
 26 50  1  0  0  0  0
 27 28  1  0  0  0  0
 27 51  1  0  0  0  0
 28 29  2  0  0  0  0
 29 30  1  0  0  0  0
 29 52  1  0  0  0  0
 30 31  1  0  0  0  0
 31 32  2  0  0  0  0
 31 53  1  0  0  0  0
M  CHG  1  19  -1
M  END
