4ge4_ligand
 OpenBabel08222323353D

 48 50  0  0  0  0  0  0  0  0999 V2000
   24.8930   -0.7420  -19.6270 C   0  0  0  0  0  0  0  0  0  0  0  0
   24.5150   -1.1520  -20.8920 C   0  0  0  0  0  0  0  0  0  0  0  0
   25.2060   -3.3820  -20.3790 C   0  0  0  0  0  0  0  0  0  0  0  0
   28.4960    1.4160  -12.0650 C   0  0  0  0  0  0  0  0  0  0  0  0
   25.4130   -1.6530  -18.7250 C   0  0  0  0  0  0  0  0  0  0  0  0
   27.7340    1.1350  -13.1800 C   0  0  0  0  0  0  0  0  0  0  0  0
   27.4990   -0.1930  -13.5020 C   0  0  0  0  0  0  0  0  0  0  0  0
   25.5800   -2.9570  -19.1240 C   0  0  0  0  0  0  0  0  0  0  0  0
   24.6640   -2.4780  -21.2620 C   0  0  0  0  0  0  0  0  0  0  0  0
   28.0630   -1.1570  -12.6770 C   0  0  0  0  0  0  0  0  0  0  0  0
   28.8350   -0.7780  -11.5970 C   0  0  0  0  0  0  0  0  0  0  0  0
   25.8110   -1.2710  -17.3740 C   0  0  0  0  0  0  0  0  0  0  0  0
   26.3510   -2.1440  -16.5010 C   0  0  0  0  0  0  0  0  0  0  0  0
   26.5420   -3.5670  -16.9320 C   0  0  0  0  0  0  0  0  0  0  0  0
   29.4550   -1.8160  -10.7230 C   0  0  0  0  0  0  0  0  0  0  0  0
   23.8570   -1.9500  -23.3550 C   0  0  0  0  0  0  0  0  0  0  0  0
   26.6460   -0.5040  -14.6990 C   0  0  0  0  0  0  0  0  0  0  0  0
   27.2010    2.2760  -13.9900 C   0  0  0  0  0  0  0  0  0  0  0  0
   29.0530    0.5030  -11.2640 N   0  0  0  0  0  0  0  0  0  0  0  0
   26.1350   -3.8550  -18.2200 N   0  0  0  0  0  0  0  0  0  0  0  0
   26.7580   -1.8550  -15.2110 N   0  0  0  0  0  0  0  0  0  0  0  0
   24.5670    3.8360  -12.7350 O   0  0  0  0  0  1  0  0  0  0  0  0
   25.7640    4.6360  -14.7960 O   0  0  0  0  0  1  0  0  0  0  0  0
   27.0360   -4.4060  -16.1800 O   0  0  0  0  0  0  0  0  0  0  0  0
   23.7880    3.1250  -15.0650 O   0  0  0  0  0  0  0  0  0  0  0  0
   27.8720   -2.5130  -12.8900 O   0  0  0  0  0  0  0  0  0  0  0  0
   26.3020   -5.1910  -18.6620 O   0  0  0  0  0  0  0  0  0  0  0  0
   24.3040   -2.9980  -22.5030 O   0  0  0  0  0  0  0  0  0  0  0  0
   25.7860    2.1810  -14.0940 O   0  0  0  0  0  0  0  0  0  0  0  0
   24.9090    3.5520  -14.1730 P   0  0  0  0  0  0  0  0  0  0  0  0
   24.7815    0.2975  -19.3407 H   0  0  0  0  0  0  0  0  0  0  0  0
   24.1023   -0.4361  -21.5936 H   0  0  0  0  0  0  0  0  0  0  0  0
   25.3374   -4.4185  -20.6680 H   0  0  0  0  0  0  0  0  0  0  0  0
   28.6555    2.4597  -11.8193 H   0  0  0  0  0  0  0  0  0  0  0  0
   25.6658   -0.2388  -17.0586 H   0  0  0  0  0  0  0  0  0  0  0  0
   30.0282   -1.3262   -9.9221 H   0  0  0  0  0  0  0  0  0  0  0  0
   30.1281   -2.4461  -11.3229 H   0  0  0  0  0  0  0  0  0  0  0  0
   28.6659   -2.4410  -10.2795 H   0  0  0  0  0  0  0  0  0  0  0  0
   23.5745   -2.3676  -24.3327 H   0  0  0  0  0  0  0  0  0  0  0  0
   24.6657   -1.2166  -23.4894 H   0  0  0  0  0  0  0  0  0  0  0  0
   22.9852   -1.4556  -22.9018 H   0  0  0  0  0  0  0  0  0  0  0  0
   26.9285    0.1885  -15.5056 H   0  0  0  0  0  0  0  0  0  0  0  0
   25.5957   -0.3333  -14.4202 H   0  0  0  0  0  0  0  0  0  0  0  0
   27.6428    2.2454  -14.9969 H   0  0  0  0  0  0  0  0  0  0  0  0
   27.4672    3.2249  -13.5014 H   0  0  0  0  0  0  0  0  0  0  0  0
   27.1413   -2.6012  -14.6134 H   0  0  0  0  0  0  0  0  0  0  0  0
   27.4449   -2.8944  -12.1320 H   0  0  0  0  0  0  0  0  0  0  0  0
   25.9894   -5.2691  -19.5557 H   0  0  0  0  0  0  0  0  0  0  0  0
  1  2  2  0  0  0  0
  1 31  1  0  0  0  0
  2  9  1  0  0  0  0
  2 32  1  0  0  0  0
  3  9  2  0  0  0  0
  3 33  1  0  0  0  0
  4 19  1  0  0  0  0
  4 34  1  0  0  0  0
  5  1  1  0  0  0  0
  5  8  2  0  0  0  0
  6  4  2  0  0  0  0
  6  7  1  0  0  0  0
  7 10  2  0  0  0  0
  7 17  1  0  0  0  0
  8  3  1  0  0  0  0
  9 28  1  0  0  0  0
 10 11  1  0  0  0  0
 10 26  1  0  0  0  0
 11 15  1  0  0  0  0
 12  5  1  0  0  0  0
 12 35  1  0  0  0  0
 13 12  2  0  0  0  0
 13 14  1  0  0  0  0
 14 20  1  0  0  0  0
 14 24  2  0  0  0  0
 15 36  1  0  0  0  0
 15 37  1  0  0  0  0
 15 38  1  0  0  0  0
 16 39  1  0  0  0  0
 16 40  1  0  0  0  0
 16 41  1  0  0  0  0
 17 21  1  0  0  0  0
 17 42  1  0  0  0  0
 17 43  1  0  0  0  0
 18  6  1  0  0  0  0
 18 44  1  0  0  0  0
 18 45  1  0  0  0  0
 19 11  2  0  0  0  0
 20  8  1  0  0  0  0
 20 27  1  0  0  0  0
 21 13  1  0  0  0  0
 21 46  1  0  0  0  0
 26 47  1  0  0  0  0
 27 48  1  0  0  0  0
 28 16  1  0  0  0  0
 29 18  1  0  0  0  0
 29 30  1  0  0  0  0
 30 22  1  0  0  0  0
 30 23  1  0  0  0  0
 30 25  2  0  0  0  0
M  END
