4ge7_ligand
 OpenBabel08222323353D

 55 58  0  0  0  0  0  0  0  0999 V2000
    3.8910    0.8100  -53.0980 C   0  0  0  0  0  0  0  0  0  0  0  0
    2.3100   -0.5850  -51.9100 C   0  0  0  0  0  0  0  0  0  0  0  0
    2.6060    0.3020  -52.9420 C   0  0  0  0  0  0  0  0  0  0  0  0
    3.2940   -0.9750  -51.0110 C   0  0  0  0  0  0  0  0  0  0  0  0
    2.5650   10.9950  -51.8900 C   0  0  0  0  0  0  0  0  0  0  0  0
    3.4140    9.8890  -51.8260 C   0  0  0  0  0  0  0  0  0  0  0  0
    6.1570    4.3170  -53.8140 C   0  0  0  0  0  0  0  0  0  0  0  0
    7.0170    1.7150  -54.4010 C   0  0  0  0  0  0  0  0  0  0  0  0
    5.3300    8.5900  -52.9200 C   0  0  0  0  0  0  0  0  0  0  0  0
    6.6670    4.0640  -55.0490 C   0  0  0  0  0  0  0  0  0  0  0  0
    3.5200   12.8110  -54.9260 C   0  0  0  0  0  0  0  0  0  0  0  0
    7.1300    2.7540  -55.3370 C   0  0  0  0  0  0  0  0  0  0  0  0
    4.5650   -0.4380  -51.1560 C   0  0  0  0  0  0  0  0  0  0  0  0
    6.0520    3.2840  -52.8600 C   0  0  0  0  0  0  0  0  0  0  0  0
    4.3630    9.7530  -52.8570 C   0  0  0  0  0  0  0  0  0  0  0  0
    4.8770    0.4440  -52.1910 C   0  0  0  0  0  0  0  0  0  0  0  0
    6.4340    1.9680  -53.1560 C   0  0  0  0  0  0  0  0  0  0  0  0
    4.3820   10.7330  -53.8660 C   0  0  0  0  0  0  0  0  0  0  0  0
    3.4610   11.7840  -53.8260 C   0  0  0  0  0  0  0  0  0  0  0  0
    5.7450    5.6830  -53.5140 C   0  0  0  0  0  0  0  0  0  0  0  0
    5.7210    6.6310  -54.4600 C   0  0  0  0  0  0  0  0  0  0  0  0
    6.2360    6.3610  -55.8020 C   0  0  0  0  0  0  0  0  0  0  0  0
    3.1890    8.9320  -50.6640 C   0  0  0  0  0  0  0  0  0  0  0  0
    2.5550   11.9270  -52.8510 N   0  0  0  0  0  0  0  0  0  0  0  0
    6.7230    5.0670  -55.9980 N   0  0  0  0  0  0  0  0  0  0  0  0
    5.1390    7.9060  -54.1970 N   0  0  0  0  0  0  0  0  0  0  0  0
    4.7140    9.7170  -47.5340 O   0  0  0  0  0  1  0  0  0  0  0  0
    5.4980    7.4700  -48.2890 O   0  0  0  0  0  1  0  0  0  0  0  0
    6.2430    7.1990  -56.6830 O   0  0  0  0  0  0  0  0  0  0  0  0
    2.9810    7.8950  -47.9600 O   0  0  0  0  0  0  0  0  0  0  0  0
    5.2740   10.6650  -54.9050 O   0  0  0  0  0  0  0  0  0  0  0  0
    7.2650    4.8350  -57.2920 O   0  0  0  0  0  0  0  0  0  0  0  0
    6.1480    0.9500  -52.2940 O   0  0  0  0  0  0  0  0  0  0  0  0
    4.3270    8.9680  -49.8290 O   0  0  0  0  0  0  0  0  0  0  0  0
    4.3520    8.4800  -48.3170 P   0  0  0  0  0  0  0  0  0  0  0  0
    4.1201    1.4827  -53.9166 H   0  0  0  0  0  0  0  0  0  0  0  0
    1.3034   -0.9741  -51.8076 H   0  0  0  0  0  0  0  0  0  0  0  0
    1.8251    0.6001  -53.6322 H   0  0  0  0  0  0  0  0  0  0  0  0
    3.0749   -1.6801  -50.2173 H   0  0  0  0  0  0  0  0  0  0  0  0
    1.8466   11.1101  -51.0865 H   0  0  0  0  0  0  0  0  0  0  0  0
    7.3795    0.7222  -54.6418 H   0  0  0  0  0  0  0  0  0  0  0  0
    5.1304    7.8944  -52.0916 H   0  0  0  0  0  0  0  0  0  0  0  0
    6.3632    8.9604  -52.8469 H   0  0  0  0  0  0  0  0  0  0  0  0
    2.7408   13.5698  -54.7614 H   0  0  0  0  0  0  0  0  0  0  0  0
    3.3539   12.3194  -55.8959 H   0  0  0  0  0  0  0  0  0  0  0  0
    4.5083   13.2940  -54.9241 H   0  0  0  0  0  0  0  0  0  0  0  0
    7.5811    2.5515  -56.3017 H   0  0  0  0  0  0  0  0  0  0  0  0
    5.3369   -0.7112  -50.4456 H   0  0  0  0  0  0  0  0  0  0  0  0
    5.6663    3.5131  -51.8732 H   0  0  0  0  0  0  0  0  0  0  0  0
    5.4500    5.9385  -52.4973 H   0  0  0  0  0  0  0  0  0  0  0  0
    3.0415    7.9114  -51.0467 H   0  0  0  0  0  0  0  0  0  0  0  0
    2.3006    9.2420  -50.0943 H   0  0  0  0  0  0  0  0  0  0  0  0
    4.5687    8.3568  -54.9267 H   0  0  0  0  0  0  0  0  0  0  0  0
    5.8091   11.4499  -54.9134 H   0  0  0  0  0  0  0  0  0  0  0  0
    6.5924    4.9814  -57.9467 H   0  0  0  0  0  0  0  0  0  0  0  0
  1  3  2  0  0  0  0
  1 36  1  0  0  0  0
  2 37  1  0  0  0  0
  3  2  1  0  0  0  0
  3 38  1  0  0  0  0
  4  2  2  0  0  0  0
  4 39  1  0  0  0  0
  5 24  1  0  0  0  0
  5 40  1  0  0  0  0
  6  5  2  0  0  0  0
  6 15  1  0  0  0  0
  7 10  2  0  0  0  0
  7 14  1  0  0  0  0
  8 41  1  0  0  0  0
  9 26  1  0  0  0  0
  9 42  1  0  0  0  0
  9 43  1  0  0  0  0
 10 12  1  0  0  0  0
 11 44  1  0  0  0  0
 11 45  1  0  0  0  0
 11 46  1  0  0  0  0
 12  8  2  0  0  0  0
 12 47  1  0  0  0  0
 13  4  1  0  0  0  0
 13 48  1  0  0  0  0
 14 17  2  0  0  0  0
 14 49  1  0  0  0  0
 15  9  1  0  0  0  0
 15 18  2  0  0  0  0
 16  1  1  0  0  0  0
 16 13  2  0  0  0  0
 17  8  1  0  0  0  0
 17 33  1  0  0  0  0
 18 19  1  0  0  0  0
 18 31  1  0  0  0  0
 19 11  1  0  0  0  0
 20  7  1  0  0  0  0
 20 50  1  0  0  0  0
 21 20  2  0  0  0  0
 21 22  1  0  0  0  0
 22 25  1  0  0  0  0
 22 29  2  0  0  0  0
 23  6  1  0  0  0  0
 23 51  1  0  0  0  0
 23 52  1  0  0  0  0
 24 19  2  0  0  0  0
 25 10  1  0  0  0  0
 25 32  1  0  0  0  0
 26 21  1  0  0  0  0
 26 53  1  0  0  0  0
 31 54  1  0  0  0  0
 32 55  1  0  0  0  0
 33 16  1  0  0  0  0
 34 23  1  0  0  0  0
 34 35  1  0  0  0  0
 35 27  1  0  0  0  0
 35 28  1  0  0  0  0
 35 30  2  0  0  0  0
M  END
