4gee_ligand
 OpenBabel08222323353D

 45 49  0  0  1  0  0  0  0  0999 V2000
  -10.3710   -2.0490  -11.4090 Cl  0  0  0  0  0  0  0  0  0  0  0  0
  -11.4910   -3.1800  -12.3090 C   0  0  0  0  0  0  0  0  0  0  0  0
  -12.9090   -3.2900  -11.9550 C   0  0  0  0  0  0  0  0  0  0  0  0
  -13.6410   -2.5060  -10.8950 C   0  0  0  0  0  0  0  0  0  0  0  0
  -14.6970   -3.3410  -10.2080 C   0  0  0  0  0  0  0  0  0  0  0  0
  -13.4020   -4.2310  -12.7880 N   0  0  0  0  0  0  0  0  0  0  0  0
  -11.1360   -4.1050  -13.3930 C   0  0  0  0  0  0  0  0  0  0  0  0
   -9.9790   -4.5580  -14.2320 C   0  0  0  0  0  0  0  0  0  0  0  0
   -8.6640   -4.0660  -14.2150 N   0  0  0  0  0  0  0  0  0  0  0  0
   -7.6130   -4.7130  -14.9910 C   0  0  0  0  0  0  0  0  0  0  0  0
   -6.6870   -3.5410  -15.3160 C   0  0  1  0  0  0  0  0  0  0  0  0
   -7.4250   -2.3720  -15.9580 C   0  0  2  0  0  0  0  0  0  0  0  0
   -6.4740   -1.5320  -16.6730 N   0  3  0  0  0  0  0  0  0  0  0  0
   -7.1170   -2.3550  -14.4630 C   0  0  1  0  0  0  0  0  0  0  0  0
   -8.2950   -2.8000  -13.5970 C   0  0  0  0  0  0  0  0  0  0  0  0
  -10.2500   -5.5150  -15.1360 N   0  0  0  0  0  0  0  0  0  0  0  0
  -11.4810   -6.0580  -15.3030 C   0  0  0  0  0  0  0  0  0  0  0  0
  -12.5540   -5.6850  -14.5780 N   0  0  0  0  0  0  0  0  0  0  0  0
  -12.4630   -4.7380  -13.6190 C   0  0  0  0  0  0  0  0  0  0  0  0
  -11.6700   -7.0320  -16.2380 O   0  0  0  0  0  0  0  0  0  0  0  0
  -10.6500   -7.5430  -17.0000 C   0  0  0  0  0  0  0  0  0  0  0  0
  -10.4470   -8.9170  -17.0230 C   0  0  0  0  0  0  0  0  0  0  0  0
   -9.4510   -9.4100  -17.7820 N   0  0  0  0  0  0  0  0  0  0  0  0
   -8.6790   -8.5910  -18.5130 C   0  0  0  0  0  0  0  0  0  0  0  0
   -8.8620   -7.2630  -18.5220 N   0  0  0  0  0  0  0  0  0  0  0  0
   -9.8390   -6.7130  -17.7790 C   0  0  0  0  0  0  0  0  0  0  0  0
  -14.1245   -1.6370  -11.3651 H   0  0  0  0  0  0  0  0  0  0  0  0
  -12.9160   -2.1603  -10.1435 H   0  0  0  0  0  0  0  0  0  0  0  0
  -15.2055   -2.7336   -9.4448 H   0  0  0  0  0  0  0  0  0  0  0  0
  -14.2228   -4.2102   -9.7288 H   0  0  0  0  0  0  0  0  0  0  0  0
  -15.4313   -3.6869  -10.9504 H   0  0  0  0  0  0  0  0  0  0  0  0
  -14.3874   -4.5307  -12.7905 H   0  0  0  0  0  0  0  0  0  0  0  0
   -8.0163   -5.1690  -15.9071 H   0  0  0  0  0  0  0  0  0  0  0  0
   -7.0933   -5.4798  -14.3978 H   0  0  0  0  0  0  0  0  0  0  0  0
   -5.6479   -3.8143  -15.5516 H   0  0  0  0  0  0  0  0  0  0  0  0
   -8.4346   -2.4232  -16.3917 H   0  0  0  0  0  0  0  0  0  0  0  0
   -6.9617   -0.7588  -17.0977 H   0  0  0  0  0  0  0  0  0  0  0  0
   -6.0177   -2.0754  -17.3889 H   0  0  0  0  0  0  0  0  0  0  0  0
   -5.7845   -1.1804  -16.0273 H   0  0  0  0  0  0  0  0  0  0  0  0
   -6.4379   -1.6310  -13.9891 H   0  0  0  0  0  0  0  0  0  0  0  0
   -7.9903   -2.9404  -12.5494 H   0  0  0  0  0  0  0  0  0  0  0  0
   -9.1218   -2.0761  -13.6445 H   0  0  0  0  0  0  0  0  0  0  0  0
  -11.0782   -9.5789  -16.4412 H   0  0  0  0  0  0  0  0  0  0  0  0
   -7.8835   -9.0161  -19.1143 H   0  0  0  0  0  0  0  0  0  0  0  0
   -9.9953   -5.6403  -17.7843 H   0  0  0  0  0  0  0  0  0  0  0  0
  1  2  1  0  0  0  0
  2  3  2  0  0  0  0
  2  7  1  0  0  0  0
  3  4  1  0  0  0  0
  3  6  1  0  0  0  0
  4  5  1  0  0  0  0
  4 27  1  0  0  0  0
  4 28  1  0  0  0  0
  5 29  1  0  0  0  0
  5 30  1  0  0  0  0
  5 31  1  0  0  0  0
  6 19  1  0  0  0  0
  6 32  1  0  0  0  0
  7  8  2  0  0  0  0
  7 19  1  0  0  0  0
  8  9  1  0  0  0  0
  8 16  1  0  0  0  0
  9 10  1  0  0  0  0
  9 15  1  0  0  0  0
 10 11  1  0  0  0  0
 10 33  1  0  0  0  0
 10 34  1  0  0  0  0
 11 12  1  0  0  0  0
 11 14  1  0  0  0  0
 11 35  1  6  0  0  0
 12 13  1  0  0  0  0
 12 14  1  0  0  0  0
 12 36  1  6  0  0  0
 13 37  1  0  0  0  0
 13 38  1  0  0  0  0
 13 39  1  0  0  0  0
 14 15  1  0  0  0  0
 14 40  1  1  0  0  0
 15 41  1  0  0  0  0
 15 42  1  0  0  0  0
 16 17  2  0  0  0  0
 17 18  1  0  0  0  0
 17 20  1  0  0  0  0
 18 19  2  0  0  0  0
 20 21  1  0  0  0  0
 21 22  2  0  0  0  0
 21 26  1  0  0  0  0
 22 23  1  0  0  0  0
 22 43  1  0  0  0  0
 23 24  2  0  0  0  0
 24 25  1  0  0  0  0
 24 44  1  0  0  0  0
 25 26  2  0  0  0  0
 26 45  1  0  0  0  0
M  CHG  1  13   1
M  END
