4gfn_ligand
 OpenBabel08222323353D

 45 49  0  0  1  0  0  0  0  0999 V2000
  -10.3160   -1.9630  -11.5540 Cl  0  0  0  0  0  0  0  0  0  0  0  0
  -11.4590   -3.1370  -12.3800 C   0  0  0  0  0  0  0  0  0  0  0  0
  -12.8740   -3.2510  -12.0190 C   0  0  0  0  0  0  0  0  0  0  0  0
  -13.6390   -2.4160  -11.0160 C   0  0  0  0  0  0  0  0  0  0  0  0
  -14.4880   -3.3330  -10.1430 C   0  0  0  0  0  0  0  0  0  0  0  0
  -13.3590   -4.2660  -12.7830 N   0  0  0  0  0  0  0  0  0  0  0  0
  -12.4000   -4.8090  -13.5740 C   0  0  0  0  0  0  0  0  0  0  0  0
  -12.4710   -5.8220  -14.4570 N   0  0  0  0  0  0  0  0  0  0  0  0
  -11.0880   -4.1340  -13.3990 C   0  0  0  0  0  0  0  0  0  0  0  0
   -9.9160   -4.6360  -14.1920 C   0  0  0  0  0  0  0  0  0  0  0  0
   -8.6090   -4.1130  -14.2400 N   0  0  0  0  0  0  0  0  0  0  0  0
   -7.5540   -4.7770  -15.0060 C   0  0  0  0  0  0  0  0  0  0  0  0
   -6.6460   -3.6090  -15.4250 C   0  0  1  0  0  0  0  0  0  0  0  0
   -7.3930   -2.4700  -16.1140 C   0  0  2  0  0  0  0  0  0  0  0  0
   -6.4450   -1.5820  -16.7750 N   0  3  0  0  0  0  0  0  0  0  0  0
   -7.0930   -2.3880  -14.6220 C   0  0  1  0  0  0  0  0  0  0  0  0
   -8.2810   -2.7830  -13.7440 C   0  0  0  0  0  0  0  0  0  0  0  0
  -10.1750   -5.6650  -15.0250 N   0  0  0  0  0  0  0  0  0  0  0  0
  -11.3970   -6.2410  -15.1360 C   0  0  0  0  0  0  0  0  0  0  0  0
  -11.6320   -7.5660  -16.1430 S   0  0  0  0  0  0  0  0  0  0  0  0
  -10.3060   -7.8690  -17.1640 C   0  0  0  0  0  0  0  0  0  0  0  0
   -9.8750   -9.1760  -17.3620 C   0  0  0  0  0  0  0  0  0  0  0  0
   -8.8240   -9.4080  -18.1730 N   0  0  0  0  0  0  0  0  0  0  0  0
   -8.1990   -8.3900  -18.8010 C   0  0  0  0  0  0  0  0  0  0  0  0
   -8.6020   -7.1190  -18.6330 N   0  0  0  0  0  0  0  0  0  0  0  0
   -9.6420   -6.8330  -17.8300 C   0  0  0  0  0  0  0  0  0  0  0  0
  -14.2910   -1.7077  -11.5482 H   0  0  0  0  0  0  0  0  0  0  0  0
  -12.9309   -1.8593  -10.3847 H   0  0  0  0  0  0  0  0  0  0  0  0
  -15.0462   -2.7297   -9.4119 H   0  0  0  0  0  0  0  0  0  0  0  0
  -13.8352   -4.0412   -9.6118 H   0  0  0  0  0  0  0  0  0  0  0  0
  -15.1953   -3.8897  -10.7753 H   0  0  0  0  0  0  0  0  0  0  0  0
  -14.3383   -4.5847  -12.7634 H   0  0  0  0  0  0  0  0  0  0  0  0
   -7.9679   -5.2916  -15.8857 H   0  0  0  0  0  0  0  0  0  0  0  0
   -7.0070   -5.4993  -14.3823 H   0  0  0  0  0  0  0  0  0  0  0  0
   -5.6059   -3.8824  -15.6560 H   0  0  0  0  0  0  0  0  0  0  0  0
   -8.3891   -2.5542  -16.5730 H   0  0  0  0  0  0  0  0  0  0  0  0
   -6.9455   -0.8330  -17.2273 H   0  0  0  0  0  0  0  0  0  0  0  0
   -5.9225   -2.1007  -17.4634 H   0  0  0  0  0  0  0  0  0  0  0  0
   -5.8115   -1.1980  -16.0915 H   0  0  0  0  0  0  0  0  0  0  0  0
   -6.4178   -1.6423  -14.1771 H   0  0  0  0  0  0  0  0  0  0  0  0
   -7.9977   -2.8133  -12.6816 H   0  0  0  0  0  0  0  0  0  0  0  0
   -9.1236   -2.0890  -13.8792 H   0  0  0  0  0  0  0  0  0  0  0  0
  -10.3790   -9.9996  -16.8693 H   0  0  0  0  0  0  0  0  0  0  0  0
   -7.3581   -8.6010  -19.4517 H   0  0  0  0  0  0  0  0  0  0  0  0
   -9.9640   -5.8062  -17.6995 H   0  0  0  0  0  0  0  0  0  0  0  0
  1  2  1  0  0  0  0
  2  3  2  0  0  0  0
  2  9  1  0  0  0  0
  3  4  1  0  0  0  0
  3  6  1  0  0  0  0
  4  5  1  0  0  0  0
  4 27  1  0  0  0  0
  4 28  1  0  0  0  0
  5 29  1  0  0  0  0
  5 30  1  0  0  0  0
  5 31  1  0  0  0  0
  6  7  1  0  0  0  0
  6 32  1  0  0  0  0
  7  8  2  0  0  0  0
  7  9  1  0  0  0  0
  8 19  1  0  0  0  0
  9 10  2  0  0  0  0
 10 11  1  0  0  0  0
 10 18  1  0  0  0  0
 11 12  1  0  0  0  0
 11 17  1  0  0  0  0
 12 13  1  0  0  0  0
 12 33  1  0  0  0  0
 12 34  1  0  0  0  0
 13 14  1  0  0  0  0
 13 16  1  0  0  0  0
 13 35  1  6  0  0  0
 14 15  1  0  0  0  0
 14 16  1  0  0  0  0
 14 36  1  6  0  0  0
 15 37  1  0  0  0  0
 15 38  1  0  0  0  0
 15 39  1  0  0  0  0
 16 17  1  0  0  0  0
 16 40  1  1  0  0  0
 17 41  1  0  0  0  0
 17 42  1  0  0  0  0
 18 19  2  0  0  0  0
 19 20  1  0  0  0  0
 20 21  1  0  0  0  0
 21 22  2  0  0  0  0
 21 26  1  0  0  0  0
 22 23  1  0  0  0  0
 22 43  1  0  0  0  0
 23 24  2  0  0  0  0
 24 25  1  0  0  0  0
 24 44  1  0  0  0  0
 25 26  2  0  0  0  0
 26 45  1  0  0  0  0
M  CHG  1  15   1
M  END
