4gg5_ligand
 OpenBabel08222323353D

 55 58  0  0  0  0  0  0  0  0999 V2000
   -4.7250   17.3410   34.7260 C   0  0  0  0  0  0  0  0  0  0  0  0
   -5.9100   18.1030   35.2380 C   0  0  0  0  0  0  0  0  0  0  0  0
   -5.6570   18.7360   36.5620 N   0  3  0  0  0  0  0  0  0  0  0  0
   -6.2770   18.2720   37.7510 C   0  0  0  0  0  0  0  0  0  0  0  0
   -4.3840   19.4930   36.6070 C   0  0  0  0  0  0  0  0  0  0  0  0
   -3.5470   19.3240   35.3850 C   0  0  0  0  0  0  0  0  0  0  0  0
   -3.5550   18.0170   34.9550 N   0  0  0  0  0  0  0  0  0  0  0  0
   -2.6120   17.6870   33.8640 C   0  0  0  0  0  0  0  0  0  0  0  0
   -2.6940   16.5240   33.1180 C   0  0  0  0  0  0  0  0  0  0  0  0
   -1.7440   16.3100   32.0800 C   0  0  0  0  0  0  0  0  0  0  0  0
   -1.5800   18.6380   33.5670 C   0  0  0  0  0  0  0  0  0  0  0  0
   -0.7200   18.4130   32.5960 N   0  0  0  0  0  0  0  0  0  0  0  0
   -0.7690   17.2890   31.8490 C   0  0  0  0  0  0  0  0  0  0  0  0
    0.1900   17.1190   30.8230 C   0  0  0  0  0  0  0  0  0  0  0  0
    0.1740   15.9760   30.0300 C   0  0  0  0  0  0  0  0  0  0  0  0
    1.1990   15.8200   28.9050 C   0  0  0  0  0  0  0  0  0  0  0  0
    0.5030   15.8650   27.7440 F   0  0  0  0  0  0  0  0  0  0  0  0
    2.0420   16.8300   28.8940 F   0  0  0  0  0  0  0  0  0  0  0  0
    1.8460   14.6800   28.9750 F   0  0  0  0  0  0  0  0  0  0  0  0
   -0.8270   14.9590   30.2590 C   0  0  0  0  0  0  0  0  0  0  0  0
   -1.7610   15.1220   31.2510 C   0  0  0  0  0  0  0  0  0  0  0  0
   -2.7580   14.0970   31.4800 N   0  0  0  0  0  0  0  0  0  0  0  0
   -2.8570   12.9630   30.5840 C   0  0  0  0  0  0  0  0  0  0  0  0
   -3.6070   13.2920   29.2920 C   0  0  0  0  0  0  0  0  0  0  0  0
   -2.8930   13.3800   28.0660 C   0  0  0  0  0  0  0  0  0  0  0  0
   -4.9910   13.5290   29.3350 C   0  0  0  0  0  0  0  0  0  0  0  0
   -5.6890   13.8460   28.1600 C   0  0  0  0  0  0  0  0  0  0  0  0
   -4.9760   13.9240   26.9300 C   0  0  0  0  0  0  0  0  0  0  0  0
   -3.5860   13.6900   26.9020 C   0  0  0  0  0  0  0  0  0  0  0  0
   -2.8980   13.7710   25.6550 N   0  0  0  0  0  0  0  0  0  0  0  0
   -3.5250   14.3000   24.6510 O   0  0  0  0  0  0  0  0  0  0  0  0
   -1.6640   13.3320   25.5140 O   0  0  0  0  0  0  0  0  0  0  0  0
   -4.8413   17.1847   33.6434 H   0  0  0  0  0  0  0  0  0  0  0  0
   -4.6800   16.3666   35.2344 H   0  0  0  0  0  0  0  0  0  0  0  0
   -6.7588   17.4101   35.3355 H   0  0  0  0  0  0  0  0  0  0  0  0
   -6.1616   18.8913   34.5133 H   0  0  0  0  0  0  0  0  0  0  0  0
   -6.2692   19.5271   36.4382 H   0  0  0  0  0  0  0  0  0  0  0  0
   -5.9446   18.8856   38.6013 H   0  0  0  0  0  0  0  0  0  0  0  0
   -5.9974   17.2224   37.9248 H   0  0  0  0  0  0  0  0  0  0  0  0
   -7.3696   18.3484   37.6487 H   0  0  0  0  0  0  0  0  0  0  0  0
   -3.8045   19.1481   37.4761 H   0  0  0  0  0  0  0  0  0  0  0  0
   -4.6184   20.5614   36.7232 H   0  0  0  0  0  0  0  0  0  0  0  0
   -2.5128   19.6202   35.6143 H   0  0  0  0  0  0  0  0  0  0  0  0
   -3.9441   19.9673   34.5860 H   0  0  0  0  0  0  0  0  0  0  0  0
   -3.4664   15.7908   33.3203 H   0  0  0  0  0  0  0  0  0  0  0  0
   -1.5076   19.5505   34.1476 H   0  0  0  0  0  0  0  0  0  0  0  0
    0.9406   17.8826   30.6540 H   0  0  0  0  0  0  0  0  0  0  0  0
   -0.8400   14.0653   29.6457 H   0  0  0  0  0  0  0  0  0  0  0  0
   -3.3989   14.1745   32.2826 H   0  0  0  0  0  0  0  0  0  0  0  0
   -3.3887   12.1512   31.1019 H   0  0  0  0  0  0  0  0  0  0  0  0
   -1.8411   12.6296   30.3254 H   0  0  0  0  0  0  0  0  0  0  0  0
   -1.8231   13.2077   28.0394 H   0  0  0  0  0  0  0  0  0  0  0  0
   -5.5210   13.4668   30.2785 H   0  0  0  0  0  0  0  0  0  0  0  0
   -6.7571   14.0291   28.1882 H   0  0  0  0  0  0  0  0  0  0  0  0
   -5.5029   14.1637   26.0135 H   0  0  0  0  0  0  0  0  0  0  0  0
  1  2  1  0  0  0  0
  1  7  1  0  0  0  0
  1 33  1  0  0  0  0
  1 34  1  0  0  0  0
  2  3  1  0  0  0  0
  2 35  1  0  0  0  0
  2 36  1  0  0  0  0
  3  4  1  0  0  0  0
  3  5  1  0  0  0  0
  3 37  1  0  0  0  0
  4 38  1  0  0  0  0
  4 39  1  0  0  0  0
  4 40  1  0  0  0  0
  5  6  1  0  0  0  0
  5 41  1  0  0  0  0
  5 42  1  0  0  0  0
  6  7  1  0  0  0  0
  6 43  1  0  0  0  0
  6 44  1  0  0  0  0
  7  8  1  0  0  0  0
  8  9  2  0  0  0  0
  8 11  1  0  0  0  0
  9 10  1  0  0  0  0
  9 45  1  0  0  0  0
 10 13  2  0  0  0  0
 10 21  1  0  0  0  0
 11 12  2  0  0  0  0
 11 46  1  0  0  0  0
 12 13  1  0  0  0  0
 13 14  1  0  0  0  0
 14 15  2  0  0  0  0
 14 47  1  0  0  0  0
 15 16  1  0  0  0  0
 15 20  1  0  0  0  0
 16 17  1  0  0  0  0
 16 18  1  0  0  0  0
 16 19  1  0  0  0  0
 20 21  2  0  0  0  0
 20 48  1  0  0  0  0
 21 22  1  0  0  0  0
 22 23  1  0  0  0  0
 22 49  1  0  0  0  0
 23 24  1  0  0  0  0
 23 50  1  0  0  0  0
 23 51  1  0  0  0  0
 24 25  2  0  0  0  0
 24 26  1  0  0  0  0
 25 29  1  0  0  0  0
 25 52  1  0  0  0  0
 26 27  2  0  0  0  0
 26 53  1  0  0  0  0
 27 28  1  0  0  0  0
 27 54  1  0  0  0  0
 28 29  2  0  0  0  0
 28 55  1  0  0  0  0
 29 30  1  0  0  0  0
 30 31  2  0  0  0  0
 30 32  2  0  0  0  0
M  CHG  1   3   1
M  END
