4gj9_ligand
 OpenBabel08222323353D

 43 46  0  0  1  0  0  0  0  0999 V2000
   11.7230   20.4640   54.3390 C   0  0  0  0  0  0  0  0  0  0  0  0
   12.9260   20.5830   53.7260 C   0  0  0  0  0  0  0  0  0  0  0  0
   10.9930   19.2150   54.8280 C   0  0  0  0  0  0  0  0  0  0  0  0
   11.0690   21.8160   54.4290 C   0  0  0  0  0  0  0  0  0  0  0  0
   13.9760   19.4860   53.5720 C   0  0  0  0  0  0  0  0  0  0  0  0
   13.2160   22.0400   53.4120 C   0  0  0  0  0  0  0  0  0  0  0  0
   11.3550   17.8900   54.4340 C   0  0  0  0  0  0  0  0  0  0  0  0
    9.8430   19.3780   55.6340 C   0  0  0  0  0  0  0  0  0  0  0  0
   12.1670   22.7820   54.1690 N   0  3  1  0  0  0  0  0  0  0  0  0
   13.6660   18.0950   53.6390 C   0  0  0  0  0  0  0  0  0  0  0  0
   15.3450   19.8670   53.6310 C   0  0  0  0  0  0  0  0  0  0  0  0
   12.4030   17.5900   53.6080 N   0  0  0  0  0  0  0  0  0  0  0  0
   10.5770   16.7750   54.8380 C   0  0  0  0  0  0  0  0  0  0  0  0
    9.0930   18.2630   56.0400 C   0  0  0  0  0  0  0  0  0  0  0  0
   11.7920   24.1510   53.7070 C   0  0  0  0  0  0  0  0  0  0  0  0
   14.7000   17.1430   53.6160 C   0  0  0  0  0  0  0  0  0  0  0  0
   16.3730   18.9090   53.6340 C   0  0  0  0  0  0  0  0  0  0  0  0
    9.4860   16.9620   55.6880 C   0  0  0  0  0  0  0  0  0  0  0  0
   11.2640   25.1320   54.7780 C   0  0  1  0  0  0  0  0  0  0  0  0
   16.0450   17.5430   53.6140 C   0  0  0  0  0  0  0  0  0  0  0  0
   12.2160   25.2150   55.9670 C   0  0  0  0  0  0  0  0  0  0  0  0
   11.1980   26.4280   54.1710 O   0  0  0  0  0  0  0  0  0  0  0  0
   10.6414   21.9746   55.4300 H   0  0  0  0  0  0  0  0  0  0  0  0
   10.2771   21.9154   53.6720 H   0  0  0  0  0  0  0  0  0  0  0  0
   13.1305   22.2329   52.3324 H   0  0  0  0  0  0  0  0  0  0  0  0
   14.2217   22.3226   53.7565 H   0  0  0  0  0  0  0  0  0  0  0  0
    9.5380   20.3719   55.9409 H   0  0  0  0  0  0  0  0  0  0  0  0
   12.5776   22.9580   55.0726 H   0  0  0  0  0  0  0  0  0  0  0  0
   15.6010   20.9194   53.6746 H   0  0  0  0  0  0  0  0  0  0  0  0
   12.2125   16.8958   52.8713 H   0  0  0  0  0  0  0  0  0  0  0  0
   10.8290   15.7806   54.4876 H   0  0  0  0  0  0  0  0  0  0  0  0
    8.1978   18.4086   56.6337 H   0  0  0  0  0  0  0  0  0  0  0  0
   11.0084   24.0405   52.9430 H   0  0  0  0  0  0  0  0  0  0  0  0
   12.6854   24.6046   53.2531 H   0  0  0  0  0  0  0  0  0  0  0  0
   14.4554   16.0871   53.5996 H   0  0  0  0  0  0  0  0  0  0  0  0
   17.4109   19.2214   53.6516 H   0  0  0  0  0  0  0  0  0  0  0  0
    8.9444   16.1064   56.0748 H   0  0  0  0  0  0  0  0  0  0  0  0
   10.2681   24.8139   55.1199 H   0  0  0  0  0  0  0  0  0  0  0  0
   16.8317   16.7974   53.5970 H   0  0  0  0  0  0  0  0  0  0  0  0
   11.8138   25.9192   56.7102 H   0  0  0  0  0  0  0  0  0  0  0  0
   13.2006   25.5661   55.6246 H   0  0  0  0  0  0  0  0  0  0  0  0
   12.3200   24.2197   56.4237 H   0  0  0  0  0  0  0  0  0  0  0  0
   10.6088   26.3981   53.4264 H   0  0  0  0  0  0  0  0  0  0  0  0
  1  2  2  0  0  0  0
  1  3  1  0  0  0  0
  1  4  1  0  0  0  0
  2  5  1  0  0  0  0
  2  6  1  0  0  0  0
  3  7  2  0  0  0  0
  3  8  1  0  0  0  0
  4  9  1  0  0  0  0
  4 23  1  0  0  0  0
  4 24  1  0  0  0  0
  5 10  2  0  0  0  0
  5 11  1  0  0  0  0
  6  9  1  0  0  0  0
  6 25  1  0  0  0  0
  6 26  1  0  0  0  0
  7 12  1  0  0  0  0
  7 13  1  0  0  0  0
  8 14  2  0  0  0  0
  8 27  1  0  0  0  0
  9 15  1  0  0  0  0
  9 28  1  1  0  0  0
 10 12  1  0  0  0  0
 10 16  1  0  0  0  0
 11 17  2  0  0  0  0
 11 29  1  0  0  0  0
 12 30  1  0  0  0  0
 13 18  2  0  0  0  0
 13 31  1  0  0  0  0
 14 18  1  0  0  0  0
 14 32  1  0  0  0  0
 15 19  1  0  0  0  0
 15 33  1  0  0  0  0
 15 34  1  0  0  0  0
 16 20  2  0  0  0  0
 16 35  1  0  0  0  0
 17 20  1  0  0  0  0
 17 36  1  0  0  0  0
 18 37  1  0  0  0  0
 19 21  1  0  0  0  0
 19 22  1  0  0  0  0
 19 38  1  1  0  0  0
 20 39  1  0  0  0  0
 21 40  1  0  0  0  0
 21 41  1  0  0  0  0
 21 42  1  0  0  0  0
 22 43  1  0  0  0  0
M  CHG  1   9   1
M  END
