4gja_ligand
 OpenBabel08222323353D

 66 69  0  0  1  0  0  0  0  0999 V2000
   34.7300  104.7370   12.5640 C   0  0  0  0  0  0  0  0  0  0  0  0
   35.3840  105.6830   11.5570 C   0  0  0  0  0  0  0  0  0  0  0  0
   35.5120  107.0540   11.8570 C   0  0  0  0  0  0  0  0  0  0  0  0
   36.1280  107.9190   10.9210 C   0  0  0  0  0  0  0  0  0  0  0  0
   36.6280  107.3860    9.7070 C   0  0  0  0  0  0  0  0  0  0  0  0
   36.4230  106.0560    9.3700 C   0  0  0  0  0  0  0  0  0  0  0  0
   35.7900  105.2200   10.2920 C   0  0  0  0  0  0  0  0  0  0  0  0
   37.3540  108.3720    8.4270 S   0  0  0  0  0  0  0  0  0  0  0  0
   37.7880  107.4810    7.3450 O   0  0  0  0  0  0  0  0  0  0  0  0
   36.4240  109.4520    8.1170 O   0  0  0  0  0  0  0  0  0  0  0  0
   38.6350  109.0120    9.2260 N   0  0  0  0  0  0  0  0  0  0  0  0
   40.0220  108.6900    8.9140 C   0  0  1  0  0  0  0  0  0  0  0  0
   40.8810  109.9810    8.9260 C   0  0  0  0  0  0  0  0  0  0  0  0
   42.2920  109.6060    8.6870 N   0  3  0  0  0  0  0  0  0  0  0  0
   42.8670  108.6870    9.7000 C   0  0  0  0  0  0  0  0  0  0  0  0
   42.0720  107.3410    9.7220 C   0  0  2  0  0  0  0  0  0  0  0  0
   40.5550  107.6410    9.9330 C   0  0  0  0  0  0  0  0  0  0  0  0
   42.6830  106.4140   10.7580 C   0  0  0  0  0  0  0  0  0  0  0  0
   42.0540  106.1440   11.7700 O   0  0  0  0  0  0  0  0  0  0  0  0
   43.9270  105.9210   10.5060 N   0  0  0  0  0  0  0  0  0  0  0  0
   44.6660  105.0450   11.4260 C   0  0  0  0  0  0  0  0  0  0  0  0
   45.8450  105.8360   12.0690 C   0  0  0  0  0  0  0  0  0  0  0  0
   45.4700  107.2540   12.5160 C   0  0  0  0  0  0  0  0  0  0  0  0
   46.0100  108.3550   11.8040 C   0  0  0  0  0  0  0  0  0  0  0  0
   45.6340  109.6670   12.1260 C   0  0  0  0  0  0  0  0  0  0  0  0
   44.6770  109.8640   13.1390 C   0  0  0  0  0  0  0  0  0  0  0  0
   44.1450  108.7710   13.8720 C   0  0  0  0  0  0  0  0  0  0  0  0
   44.5190  107.4630   13.5390 C   0  0  0  0  0  0  0  0  0  0  0  0
   46.7530  105.0630   13.0390 C   0  0  0  0  0  0  0  0  0  0  0  0
   47.8680  104.3430   12.5540 C   0  0  0  0  0  0  0  0  0  0  0  0
   48.6960  103.6210   13.4370 C   0  0  0  0  0  0  0  0  0  0  0  0
   48.4160  103.6130   14.8180 C   0  0  0  0  0  0  0  0  0  0  0  0
   47.3220  104.3420   15.3170 C   0  0  0  0  0  0  0  0  0  0  0  0
   46.4850  105.0490   14.4250 C   0  0  0  0  0  0  0  0  0  0  0  0
   34.4893  105.2901   13.4838 H   0  0  0  0  0  0  0  0  0  0  0  0
   35.4236  103.9166   12.8004 H   0  0  0  0  0  0  0  0  0  0  0  0
   33.8065  104.3236   12.1325 H   0  0  0  0  0  0  0  0  0  0  0  0
   35.1412  107.4435   12.7982 H   0  0  0  0  0  0  0  0  0  0  0  0
   36.2164  108.9788   11.1309 H   0  0  0  0  0  0  0  0  0  0  0  0
   36.7480  105.6731    8.4093 H   0  0  0  0  0  0  0  0  0  0  0  0
   35.6063  104.1854   10.0257 H   0  0  0  0  0  0  0  0  0  0  0  0
   38.4549  109.6583    9.9676 H   0  0  0  0  0  0  0  0  0  0  0  0
   40.0666  108.2518    7.9060 H   0  0  0  0  0  0  0  0  0  0  0  0
   40.7894  110.4790    9.9025 H   0  0  0  0  0  0  0  0  0  0  0  0
   40.5385  110.6624    8.1333 H   0  0  0  0  0  0  0  0  0  0  0  0
   42.8442  110.4492    8.6781 H   0  0  0  0  0  0  0  0  0  0  0  0
   42.3498  109.1569    7.7864 H   0  0  0  0  0  0  0  0  0  0  0  0
   42.8102  109.1586   10.6921 H   0  0  0  0  0  0  0  0  0  0  0  0
   43.9188  108.4835    9.4504 H   0  0  0  0  0  0  0  0  0  0  0  0
   42.1792  106.8557    8.7407 H   0  0  0  0  0  0  0  0  0  0  0  0
   39.9877  106.7066    9.8107 H   0  0  0  0  0  0  0  0  0  0  0  0
   40.4078  108.0286   10.9519 H   0  0  0  0  0  0  0  0  0  0  0  0
   44.3645  106.1703    9.6420 H   0  0  0  0  0  0  0  0  0  0  0  0
   45.0637  104.1830   10.8703 H   0  0  0  0  0  0  0  0  0  0  0  0
   43.9888  104.6905   12.2170 H   0  0  0  0  0  0  0  0  0  0  0  0
   46.5115  106.0146   11.2124 H   0  0  0  0  0  0  0  0  0  0  0  0
   46.7199  108.1809   11.0035 H   0  0  0  0  0  0  0  0  0  0  0  0
   46.0712  110.5116   11.6057 H   0  0  0  0  0  0  0  0  0  0  0  0
   44.3398  110.8694   13.3637 H   0  0  0  0  0  0  0  0  0  0  0  0
   43.4519  108.9480   14.6864 H   0  0  0  0  0  0  0  0  0  0  0  0
   44.0828  106.6193   14.0614 H   0  0  0  0  0  0  0  0  0  0  0  0
   48.0886  104.3460   11.4927 H   0  0  0  0  0  0  0  0  0  0  0  0
   49.5483  103.0718   13.0537 H   0  0  0  0  0  0  0  0  0  0  0  0
   49.0436  103.0452   15.4953 H   0  0  0  0  0  0  0  0  0  0  0  0
   47.1216  104.3615   16.3821 H   0  0  0  0  0  0  0  0  0  0  0  0
   45.6264  105.5874   14.8096 H   0  0  0  0  0  0  0  0  0  0  0  0
  1  2  1  0  0  0  0
  1 35  1  0  0  0  0
  1 36  1  0  0  0  0
  1 37  1  0  0  0  0
  2  3  2  0  0  0  0
  2  7  1  0  0  0  0
  3  4  1  0  0  0  0
  3 38  1  0  0  0  0
  4  5  2  0  0  0  0
  4 39  1  0  0  0  0
  5  6  1  0  0  0  0
  5  8  1  0  0  0  0
  6  7  2  0  0  0  0
  6 40  1  0  0  0  0
  7 41  1  0  0  0  0
  8  9  2  0  0  0  0
  8 10  2  0  0  0  0
  8 11  1  0  0  0  0
 11 12  1  0  0  0  0
 11 42  1  0  0  0  0
 12 13  1  0  0  0  0
 12 17  1  0  0  0  0
 12 43  1  6  0  0  0
 13 14  1  0  0  0  0
 13 44  1  0  0  0  0
 13 45  1  0  0  0  0
 14 15  1  0  0  0  0
 14 46  1  0  0  0  0
 14 47  1  0  0  0  0
 15 16  1  0  0  0  0
 15 48  1  0  0  0  0
 15 49  1  0  0  0  0
 16 17  1  0  0  0  0
 16 18  1  0  0  0  0
 16 50  1  6  0  0  0
 17 51  1  0  0  0  0
 17 52  1  0  0  0  0
 18 19  2  0  0  0  0
 18 20  1  0  0  0  0
 20 21  1  0  0  0  0
 20 53  1  0  0  0  0
 21 22  1  0  0  0  0
 21 54  1  0  0  0  0
 21 55  1  0  0  0  0
 22 23  1  0  0  0  0
 22 29  1  0  0  0  0
 22 56  1  0  0  0  0
 23 24  2  0  0  0  0
 23 28  1  0  0  0  0
 24 25  1  0  0  0  0
 24 57  1  0  0  0  0
 25 26  2  0  0  0  0
 25 58  1  0  0  0  0
 26 27  1  0  0  0  0
 26 59  1  0  0  0  0
 27 28  2  0  0  0  0
 27 60  1  0  0  0  0
 28 61  1  0  0  0  0
 29 30  2  0  0  0  0
 29 34  1  0  0  0  0
 30 31  1  0  0  0  0
 30 62  1  0  0  0  0
 31 32  2  0  0  0  0
 31 63  1  0  0  0  0
 32 33  1  0  0  0  0
 32 64  1  0  0  0  0
 33 34  2  0  0  0  0
 33 65  1  0  0  0  0
 34 66  1  0  0  0  0
M  CHG  1  14   1
M  END
