4gjb_ligand
 OpenBabel08222323353D

 47 50  0  0  1  0  0  0  0  0999 V2000
    9.1400   22.3740   47.7350 C   0  0  0  0  0  0  0  0  0  0  0  0
    9.4200   20.9800   47.8780 C   0  0  0  0  0  0  0  0  0  0  0  0
   10.5090   20.3730   47.2350 O   0  0  0  0  0  0  0  0  0  0  0  0
    9.9960   23.2340   46.7910 C   0  0  0  0  0  0  0  0  0  0  0  0
    7.2860   22.1470   49.2660 C   0  0  0  0  0  0  0  0  0  0  0  0
    7.5350   20.7700   49.3760 C   0  0  0  0  0  0  0  0  0  0  0  0
    8.6290   20.1850   48.7110 C   0  0  0  0  0  0  0  0  0  0  0  0
    8.0770   22.9650   48.4400 C   0  0  0  0  0  0  0  0  0  0  0  0
   11.4050   22.6210   46.7270 C   0  0  0  0  0  0  0  0  0  0  0  0
   11.5910   21.2200   46.9560 C   0  0  0  0  0  0  0  0  0  0  0  0
   12.8760   20.6570   46.9120 C   0  0  0  0  0  0  0  0  0  0  0  0
   13.9760   21.4940   46.6500 C   0  0  0  0  0  0  0  0  0  0  0  0
   13.7980   22.8750   46.4130 C   0  0  0  0  0  0  0  0  0  0  0  0
   12.5160   23.4470   46.4630 C   0  0  0  0  0  0  0  0  0  0  0  0
    9.3610   23.1950   45.3620 C   0  0  0  0  0  0  0  0  0  0  0  0
    7.9050   23.4540   45.3530 N   0  0  0  0  0  0  0  0  0  0  0  0
    6.9120   22.5350   45.1120 C   0  0  0  0  0  0  0  0  0  0  0  0
    7.1360   21.3570   44.8450 O   0  0  0  0  0  0  0  0  0  0  0  0
    5.4690   23.0120   45.1660 C   0  0  1  0  0  0  0  0  0  0  0  0
    4.4500   21.9050   44.7630 C   0  0  0  0  0  0  0  0  0  0  0  0
    2.9520   22.3190   44.9210 C   0  0  0  0  0  0  0  0  0  0  0  0
    2.6540   22.8670   46.3450 C   0  0  0  0  0  0  0  0  0  0  0  0
    3.6410   23.9100   46.6820 N   0  3  0  0  0  0  0  0  0  0  0  0
    5.0680   23.5070   46.5820 C   0  0  0  0  0  0  0  0  0  0  0  0
   10.0462   24.2702   47.1568 H   0  0  0  0  0  0  0  0  0  0  0  0
    6.4699   22.5873   49.8274 H   0  0  0  0  0  0  0  0  0  0  0  0
    6.8791   20.1518   49.9783 H   0  0  0  0  0  0  0  0  0  0  0  0
    8.8544   19.1330   48.8433 H   0  0  0  0  0  0  0  0  0  0  0  0
    7.8721   24.0256   48.3490 H   0  0  0  0  0  0  0  0  0  0  0  0
   13.0184   19.5952   47.0771 H   0  0  0  0  0  0  0  0  0  0  0  0
   14.9747   21.0729   46.6297 H   0  0  0  0  0  0  0  0  0  0  0  0
   14.6569   23.4979   46.1909 H   0  0  0  0  0  0  0  0  0  0  0  0
   12.3829   24.5105   46.3006 H   0  0  0  0  0  0  0  0  0  0  0  0
    9.5396   22.1996   44.9293 H   0  0  0  0  0  0  0  0  0  0  0  0
    9.8536   23.9583   44.7417 H   0  0  0  0  0  0  0  0  0  0  0  0
    7.6138   24.3920   45.5412 H   0  0  0  0  0  0  0  0  0  0  0  0
    5.3711   23.8499   44.4601 H   0  0  0  0  0  0  0  0  0  0  0  0
    4.6318   21.0233   45.3951 H   0  0  0  0  0  0  0  0  0  0  0  0
    4.6253   21.6431   43.7091 H   0  0  0  0  0  0  0  0  0  0  0  0
    2.3177   21.4392   44.7377 H   0  0  0  0  0  0  0  0  0  0  0  0
    2.7181   23.0999   44.1824 H   0  0  0  0  0  0  0  0  0  0  0  0
    2.7213   22.0475   47.0757 H   0  0  0  0  0  0  0  0  0  0  0  0
    1.6420   23.2973   46.3689 H   0  0  0  0  0  0  0  0  0  0  0  0
    3.4685   24.2040   47.6306 H   0  0  0  0  0  0  0  0  0  0  0  0
    3.4948   24.6875   46.0574 H   0  0  0  0  0  0  0  0  0  0  0  0
    5.6943   24.3739   46.8391 H   0  0  0  0  0  0  0  0  0  0  0  0
    5.2526   22.6951   47.3009 H   0  0  0  0  0  0  0  0  0  0  0  0
  1  2  2  0  0  0  0
  1  4  1  0  0  0  0
  2  3  1  0  0  0  0
  2  7  1  0  0  0  0
  3 10  1  0  0  0  0
  4  9  1  0  0  0  0
  4 15  1  0  0  0  0
  4 25  1  0  0  0  0
  5  6  1  0  0  0  0
  5  8  2  0  0  0  0
  5 26  1  0  0  0  0
  6  7  2  0  0  0  0
  6 27  1  0  0  0  0
  7 28  1  0  0  0  0
  8  1  1  0  0  0  0
  8 29  1  0  0  0  0
  9 10  2  0  0  0  0
  9 14  1  0  0  0  0
 10 11  1  0  0  0  0
 11 12  2  0  0  0  0
 11 30  1  0  0  0  0
 12 13  1  0  0  0  0
 12 31  1  0  0  0  0
 13 14  2  0  0  0  0
 13 32  1  0  0  0  0
 14 33  1  0  0  0  0
 15 16  1  0  0  0  0
 15 34  1  0  0  0  0
 15 35  1  0  0  0  0
 16 17  1  0  0  0  0
 16 36  1  0  0  0  0
 17 18  2  0  0  0  0
 17 19  1  0  0  0  0
 19 20  1  0  0  0  0
 19 24  1  0  0  0  0
 19 37  1  6  0  0  0
 20 21  1  0  0  0  0
 20 38  1  0  0  0  0
 20 39  1  0  0  0  0
 21 22  1  0  0  0  0
 21 40  1  0  0  0  0
 21 41  1  0  0  0  0
 22 23  1  0  0  0  0
 22 42  1  0  0  0  0
 22 43  1  0  0  0  0
 23 24  1  0  0  0  0
 23 44  1  0  0  0  0
 23 45  1  0  0  0  0
 24 46  1  0  0  0  0
 24 47  1  0  0  0  0
M  CHG  1  23   1
M  END
