4gjc_ligand
 OpenBabel08222323353D

 65 69  0  0  1  0  0  0  0  0999 V2000
   71.0440   10.9620   47.4870 C   0  0  0  0  0  0  0  0  0  0  0  0
   71.0740    9.9860   50.2050 O   0  0  0  0  0  0  0  0  0  0  0  0
   69.7930   10.3490   48.1470 C   0  0  0  0  0  0  0  0  0  0  0  0
   71.9260   11.6100   48.5760 C   0  0  0  0  0  0  0  0  0  0  0  0
   69.8870    9.8560   49.4720 C   0  0  0  0  0  0  0  0  0  0  0  0
   71.9090   11.0780   49.8940 C   0  0  0  0  0  0  0  0  0  0  0  0
   71.8440    9.8140   46.7820 C   0  0  0  0  0  0  0  0  0  0  0  0
   72.7590   12.7190   48.3100 C   0  0  0  0  0  0  0  0  0  0  0  0
   68.5810   10.2640   47.4280 C   0  0  0  0  0  0  0  0  0  0  0  0
   68.7720    9.2870   50.0940 C   0  0  0  0  0  0  0  0  0  0  0  0
   72.7020   11.6650   50.9170 C   0  0  0  0  0  0  0  0  0  0  0  0
   67.4730    9.6570   48.0220 C   0  0  0  0  0  0  0  0  0  0  0  0
   73.5540   13.2890   49.3460 C   0  0  0  0  0  0  0  0  0  0  0  0
   67.5790    9.1940   49.3570 C   0  0  0  0  0  0  0  0  0  0  0  0
   73.5390   12.7620   50.6540 C   0  0  0  0  0  0  0  0  0  0  0  0
   71.0070    8.9470   45.9190 N   0  0  0  0  0  0  0  0  0  0  0  0
   70.6180    7.6630   46.2050 C   0  0  0  0  0  0  0  0  0  0  0  0
   69.6990    6.9480   45.2180 C   0  0  1  0  0  0  0  0  0  0  0  0
   69.3530    5.4790   45.6260 C   0  0  0  0  0  0  0  0  0  0  0  0
   67.1440    5.6380   44.3160 C   0  0  0  0  0  0  0  0  0  0  0  0
   67.5050    7.0250   43.9390 N   0  3  0  0  0  0  0  0  0  0  0  0
   68.4520    4.8290   44.5390 C   0  0  2  0  0  0  0  0  0  0  0  0
   68.3800    7.7430   44.9100 C   0  0  0  0  0  0  0  0  0  0  0  0
   70.9690    7.0630   47.2170 O   0  0  0  0  0  0  0  0  0  0  0  0
   68.1680    3.4400   44.8630 N   0  0  0  0  0  0  0  0  0  0  0  0
   68.7470    2.1630   44.0140 S   0  0  0  0  0  0  0  0  0  0  0  0
   67.6210    1.3080   43.6360 O   0  0  0  0  0  0  0  0  0  0  0  0
   69.6140    2.6260   42.9410 O   0  0  0  0  0  0  0  0  0  0  0  0
   69.7360    1.3900   45.2780 C   0  0  0  0  0  0  0  0  0  0  0  0
   69.1400    0.9430   46.4760 C   0  0  0  0  0  0  0  0  0  0  0  0
   71.3040    0.1210   47.2610 C   0  0  0  0  0  0  0  0  0  0  0  0
   71.8940    0.5550   46.0570 C   0  0  0  0  0  0  0  0  0  0  0  0
   69.9210    0.3110   47.4670 C   0  0  0  0  0  0  0  0  0  0  0  0
   71.1190    1.1910   45.0730 C   0  0  0  0  0  0  0  0  0  0  0  0
   72.1550   -0.5640   48.3420 C   0  0  0  0  0  0  0  0  0  0  0  0
   70.7464   11.7207   46.7482 H   0  0  0  0  0  0  0  0  0  0  0  0
   72.3082    9.1873   47.5577 H   0  0  0  0  0  0  0  0  0  0  0  0
   72.6288   10.2690   46.1599 H   0  0  0  0  0  0  0  0  0  0  0  0
   72.7938   13.1392   47.3114 H   0  0  0  0  0  0  0  0  0  0  0  0
   68.5114   10.6664   46.4239 H   0  0  0  0  0  0  0  0  0  0  0  0
   68.8260    8.9278   51.1154 H   0  0  0  0  0  0  0  0  0  0  0  0
   72.6601   11.2578   51.9207 H   0  0  0  0  0  0  0  0  0  0  0  0
   66.5467    9.5418   47.4709 H   0  0  0  0  0  0  0  0  0  0  0  0
   74.1824   14.1441   49.1245 H   0  0  0  0  0  0  0  0  0  0  0  0
   66.7080    8.7519   49.8270 H   0  0  0  0  0  0  0  0  0  0  0  0
   74.1562   13.1915   51.4348 H   0  0  0  0  0  0  0  0  0  0  0  0
   70.6980    9.3329   45.0498 H   0  0  0  0  0  0  0  0  0  0  0  0
   70.2593    6.8876   44.2733 H   0  0  0  0  0  0  0  0  0  0  0  0
   68.8194    5.4832   46.5879 H   0  0  0  0  0  0  0  0  0  0  0  0
   70.2823    4.8989   45.7247 H   0  0  0  0  0  0  0  0  0  0  0  0
   66.5554    5.1760   43.5098 H   0  0  0  0  0  0  0  0  0  0  0  0
   66.5518    5.6480   45.2429 H   0  0  0  0  0  0  0  0  0  0  0  0
   66.6519    7.5526   43.8396 H   0  0  0  0  0  0  0  0  0  0  0  0
   67.9848    6.9919   43.0531 H   0  0  0  0  0  0  0  0  0  0  0  0
   69.0128    4.8418   43.5928 H   0  0  0  0  0  0  0  0  0  0  0  0
   68.6471    8.7234   44.4888 H   0  0  0  0  0  0  0  0  0  0  0  0
   67.8249    7.8862   45.8488 H   0  0  0  0  0  0  0  0  0  0  0  0
   67.5835    3.2524   45.6524 H   0  0  0  0  0  0  0  0  0  0  0  0
   68.0774    1.0856   46.6360 H   0  0  0  0  0  0  0  0  0  0  0  0
   72.9532    0.3970   45.8890 H   0  0  0  0  0  0  0  0  0  0  0  0
   69.4584   -0.0286   48.3867 H   0  0  0  0  0  0  0  0  0  0  0  0
   71.5837    1.5298   44.1541 H   0  0  0  0  0  0  0  0  0  0  0  0
   73.2001   -0.6218   48.0039 H   0  0  0  0  0  0  0  0  0  0  0  0
   71.7713   -1.5790   48.5222 H   0  0  0  0  0  0  0  0  0  0  0  0
   72.1027    0.0185   49.2736 H   0  0  0  0  0  0  0  0  0  0  0  0
  1  3  1  0  0  0  0
  1  4  1  0  0  0  0
  1 36  1  0  0  0  0
  3  5  2  0  0  0  0
  3  9  1  0  0  0  0
  4  6  2  0  0  0  0
  4  8  1  0  0  0  0
  5  2  1  0  0  0  0
  5 10  1  0  0  0  0
  6  2  1  0  0  0  0
  6 11  1  0  0  0  0
  7  1  1  0  0  0  0
  7 37  1  0  0  0  0
  7 38  1  0  0  0  0
  8 13  2  0  0  0  0
  8 39  1  0  0  0  0
  9 12  2  0  0  0  0
  9 40  1  0  0  0  0
 10 14  2  0  0  0  0
 10 41  1  0  0  0  0
 11 15  2  0  0  0  0
 11 42  1  0  0  0  0
 12 14  1  0  0  0  0
 12 43  1  0  0  0  0
 13 15  1  0  0  0  0
 13 44  1  0  0  0  0
 14 45  1  0  0  0  0
 15 46  1  0  0  0  0
 16  7  1  0  0  0  0
 16 47  1  0  0  0  0
 17 16  1  0  0  0  0
 17 24  2  0  0  0  0
 18 17  1  0  0  0  0
 18 23  1  0  0  0  0
 18 48  1  6  0  0  0
 19 18  1  0  0  0  0
 19 49  1  0  0  0  0
 19 50  1  0  0  0  0
 20 21  1  0  0  0  0
 20 51  1  0  0  0  0
 20 52  1  0  0  0  0
 21 23  1  0  0  0  0
 21 53  1  0  0  0  0
 21 54  1  0  0  0  0
 22 19  1  0  0  0  0
 22 20  1  0  0  0  0
 22 55  1  6  0  0  0
 23 56  1  0  0  0  0
 23 57  1  0  0  0  0
 25 22  1  0  0  0  0
 25 58  1  0  0  0  0
 26 25  1  0  0  0  0
 26 27  2  0  0  0  0
 26 28  2  0  0  0  0
 29 26  1  0  0  0  0
 29 34  1  0  0  0  0
 30 29  2  0  0  0  0
 30 59  1  0  0  0  0
 31 32  1  0  0  0  0
 31 33  2  0  0  0  0
 31 35  1  0  0  0  0
 32 34  2  0  0  0  0
 32 60  1  0  0  0  0
 33 30  1  0  0  0  0
 33 61  1  0  0  0  0
 34 62  1  0  0  0  0
 35 63  1  0  0  0  0
 35 64  1  0  0  0  0
 35 65  1  0  0  0  0
M  CHG  1  21   1
M  END
