4gjd_ligand
 OpenBabel08222323353D

 81 85  0  0  1  0  0  0  0  0999 V2000
   40.9910  110.2090    9.0280 C   0  0  0  0  0  0  0  0  0  0  0  0
   40.1830  108.8930    9.0120 C   0  0  1  0  0  0  0  0  0  0  0  0
   40.7940  107.8390    9.9820 C   0  0  0  0  0  0  0  0  0  0  0  0
   42.3240  107.5820    9.7560 C   0  0  1  0  0  0  0  0  0  0  0  0
   43.0570  108.9440    9.6250 C   0  0  0  0  0  0  0  0  0  0  0  0
   42.3850  109.8820    8.6900 N   0  3  0  0  0  0  0  0  0  0  0  0
   38.7770  109.1170    9.3200 N   0  0  0  0  0  0  0  0  0  0  0  0
   43.0040  106.7930   10.8690 C   0  0  0  0  0  0  0  0  0  0  0  0
   37.5740  108.3940    8.4720 S   0  0  0  0  0  0  0  0  0  0  0  0
   36.8920  107.3300    9.7180 C   0  0  0  0  0  0  0  0  0  0  0  0
   36.6440  109.4570    8.1320 O   0  0  0  0  0  0  0  0  0  0  0  0
   38.1040  107.5490    7.4050 O   0  0  0  0  0  0  0  0  0  0  0  0
   36.4230  107.9050   10.9230 C   0  0  0  0  0  0  0  0  0  0  0  0
   35.8610  107.0850   11.9250 C   0  0  0  0  0  0  0  0  0  0  0  0
   35.7670  105.6950   11.7310 C   0  0  0  0  0  0  0  0  0  0  0  0
   36.2190  105.1200   10.5170 C   0  0  0  0  0  0  0  0  0  0  0  0
   36.7990  105.9300    9.5180 C   0  0  0  0  0  0  0  0  0  0  0  0
   35.1530  104.8210   12.8370 C   0  0  0  0  0  0  0  0  0  0  0  0
   42.5000  106.7900   11.9770 O   0  0  0  0  0  0  0  0  0  0  0  0
   44.1710  106.1310   10.6000 N   0  0  0  0  0  0  0  0  0  0  0  0
   44.9680  105.3800   11.5890 C   0  0  0  0  0  0  0  0  0  0  0  0
   46.2240  106.1460   12.1570 C   0  0  0  0  0  0  0  0  0  0  0  0
   45.2210  106.4820   14.8100 O   0  0  0  0  0  0  0  0  0  0  0  0
   45.7300  107.5380   12.6790 C   0  0  0  0  0  0  0  0  0  0  0  0
   45.1890  107.6050   13.9830 C   0  0  0  0  0  0  0  0  0  0  0  0
   44.6520  108.8030   14.4890 C   0  0  0  0  0  0  0  0  0  0  0  0
   44.6020  109.9520   13.6760 C   0  0  0  0  0  0  0  0  0  0  0  0
   45.1210  109.9280   12.3730 C   0  0  0  0  0  0  0  0  0  0  0  0
   45.6760  108.7310   11.8950 C   0  0  0  0  0  0  0  0  0  0  0  0
   46.2040  105.5080   14.6370 C   0  0  0  0  0  0  0  0  0  0  0  0
   46.7410  105.2750   13.3530 C   0  0  0  0  0  0  0  0  0  0  0  0
   47.7370  104.2530   13.2560 C   0  0  0  0  0  0  0  0  0  0  0  0
   48.1680  103.5020   14.3850 C   0  0  0  0  0  0  0  0  0  0  0  0
   47.6400  103.7820   15.6570 C   0  0  0  0  0  0  0  0  0  0  0  0
   46.6610  104.7930   15.7670 C   0  0  0  0  0  0  0  0  0  0  0  0
   47.3030  106.2690   11.0210 C   0  0  0  0  0  0  0  0  0  0  0  0
   48.5920  107.1100   11.2640 C   0  0  0  0  0  0  0  0  0  0  0  0
   49.6330  106.9050   10.1290 C   0  0  0  0  0  0  0  0  0  0  0  0
   49.3140  107.7570    8.8730 C   0  0  0  0  0  0  0  0  0  0  0  0
   50.4640  107.7690    8.0010 O   0  0  0  0  0  0  0  0  0  0  0  0
   50.1480  107.4150    6.6490 C   0  0  0  0  0  0  0  0  0  0  0  0
   40.9450  110.6647   10.0281 H   0  0  0  0  0  0  0  0  0  0  0  0
   40.5802  110.9099    8.2864 H   0  0  0  0  0  0  0  0  0  0  0  0
   40.2398  108.4829    7.9929 H   0  0  0  0  0  0  0  0  0  0  0  0
   40.2586  106.8883    9.8428 H   0  0  0  0  0  0  0  0  0  0  0  0
   40.6506  108.1930   11.0136 H   0  0  0  0  0  0  0  0  0  0  0  0
   42.4368  107.0183    8.8182 H   0  0  0  0  0  0  0  0  0  0  0  0
   44.0779  108.7580    9.2601 H   0  0  0  0  0  0  0  0  0  0  0  0
   43.1026  109.4136   10.6187 H   0  0  0  0  0  0  0  0  0  0  0  0
   42.9127  110.7407    8.6765 H   0  0  0  0  0  0  0  0  0  0  0  0
   42.3945  109.4673    7.7713 H   0  0  0  0  0  0  0  0  0  0  0  0
   38.5379  109.7310   10.0722 H   0  0  0  0  0  0  0  0  0  0  0  0
   36.4954  108.9756   11.0766 H   0  0  0  0  0  0  0  0  0  0  0  0
   35.5008  107.5277   12.8466 H   0  0  0  0  0  0  0  0  0  0  0  0
   36.1186  104.0528   10.3553 H   0  0  0  0  0  0  0  0  0  0  0  0
   37.1713  105.4841    8.6028 H   0  0  0  0  0  0  0  0  0  0  0  0
   34.8687  105.4549   13.6898 H   0  0  0  0  0  0  0  0  0  0  0  0
   35.8902  104.0736   13.1654 H   0  0  0  0  0  0  0  0  0  0  0  0
   34.2608  104.3093   12.4471 H   0  0  0  0  0  0  0  0  0  0  0  0
   44.5102  106.1583    9.6597 H   0  0  0  0  0  0  0  0  0  0  0  0
   45.3211  104.4547   11.1102 H   0  0  0  0  0  0  0  0  0  0  0  0
   44.3116  105.1278   12.4349 H   0  0  0  0  0  0  0  0  0  0  0  0
   44.2765  108.8417   15.5052 H   0  0  0  0  0  0  0  0  0  0  0  0
   44.1584  110.8632   14.0607 H   0  0  0  0  0  0  0  0  0  0  0  0
   45.0940  110.8142   11.7493 H   0  0  0  0  0  0  0  0  0  0  0  0
   46.0804  108.7108   10.8895 H   0  0  0  0  0  0  0  0  0  0  0  0
   48.1789  104.0433   12.2886 H   0  0  0  0  0  0  0  0  0  0  0  0
   48.9030  102.7145   14.2641 H   0  0  0  0  0  0  0  0  0  0  0  0
   47.9758  103.2357   16.5310 H   0  0  0  0  0  0  0  0  0  0  0  0
   46.2496  105.0267   16.7423 H   0  0  0  0  0  0  0  0  0  0  0  0
   46.7973  106.7067   10.1477 H   0  0  0  0  0  0  0  0  0  0  0  0
   47.6305  105.2467   10.7809 H   0  0  0  0  0  0  0  0  0  0  0  0
   49.0421  106.8048   12.2201 H   0  0  0  0  0  0  0  0  0  0  0  0
   48.3198  108.1748   11.3102 H   0  0  0  0  0  0  0  0  0  0  0  0
   49.6392  105.8429    9.8430 H   0  0  0  0  0  0  0  0  0  0  0  0
   50.6267  107.1892   10.5055 H   0  0  0  0  0  0  0  0  0  0  0  0
   49.0734  108.7860    9.1782 H   0  0  0  0  0  0  0  0  0  0  0  0
   48.4547  107.3216    8.3420 H   0  0  0  0  0  0  0  0  0  0  0  0
   51.0631  107.4431    6.0392 H   0  0  0  0  0  0  0  0  0  0  0  0
   49.4158  108.1293    6.2445 H   0  0  0  0  0  0  0  0  0  0  0  0
   49.7226  106.4009    6.6253 H   0  0  0  0  0  0  0  0  0  0  0  0
  1 42  1  0  0  0  0
  1 43  1  0  0  0  0
  2  1  1  0  0  0  0
  2  7  1  0  0  0  0
  2 44  1  6  0  0  0
  3  2  1  0  0  0  0
  3 45  1  0  0  0  0
  3 46  1  0  0  0  0
  4  3  1  0  0  0  0
  4  5  1  0  0  0  0
  4 47  1  6  0  0  0
  5  6  1  0  0  0  0
  5 48  1  0  0  0  0
  5 49  1  0  0  0  0
  6  1  1  0  0  0  0
  6 50  1  0  0  0  0
  6 51  1  0  0  0  0
  7  9  1  0  0  0  0
  7 52  1  0  0  0  0
  8  4  1  0  0  0  0
  8 19  2  0  0  0  0
  9 10  1  0  0  0  0
  9 11  2  0  0  0  0
  9 12  2  0  0  0  0
 10 13  2  0  0  0  0
 10 17  1  0  0  0  0
 13 14  1  0  0  0  0
 13 53  1  0  0  0  0
 14 15  2  0  0  0  0
 14 54  1  0  0  0  0
 15 18  1  0  0  0  0
 16 15  1  0  0  0  0
 16 55  1  0  0  0  0
 17 16  2  0  0  0  0
 17 56  1  0  0  0  0
 18 57  1  0  0  0  0
 18 58  1  0  0  0  0
 18 59  1  0  0  0  0
 20  8  1  0  0  0  0
 20 60  1  0  0  0  0
 21 20  1  0  0  0  0
 21 61  1  0  0  0  0
 21 62  1  0  0  0  0
 22 21  1  0  0  0  0
 22 31  1  0  0  0  0
 22 36  1  0  0  0  0
 23 30  1  0  0  0  0
 24 22  1  0  0  0  0
 24 25  2  0  0  0  0
 24 29  1  0  0  0  0
 25 23  1  0  0  0  0
 25 26  1  0  0  0  0
 26 27  2  0  0  0  0
 26 63  1  0  0  0  0
 27 28  1  0  0  0  0
 27 64  1  0  0  0  0
 28 29  2  0  0  0  0
 28 65  1  0  0  0  0
 29 66  1  0  0  0  0
 30 31  2  0  0  0  0
 30 35  1  0  0  0  0
 31 32  1  0  0  0  0
 32 33  2  0  0  0  0
 32 67  1  0  0  0  0
 33 34  1  0  0  0  0
 33 68  1  0  0  0  0
 34 35  2  0  0  0  0
 34 69  1  0  0  0  0
 35 70  1  0  0  0  0
 36 37  1  0  0  0  0
 36 71  1  0  0  0  0
 36 72  1  0  0  0  0
 37 38  1  0  0  0  0
 37 73  1  0  0  0  0
 37 74  1  0  0  0  0
 38 39  1  0  0  0  0
 38 75  1  0  0  0  0
 38 76  1  0  0  0  0
 39 40  1  0  0  0  0
 39 77  1  0  0  0  0
 39 78  1  0  0  0  0
 40 41  1  0  0  0  0
 41 79  1  0  0  0  0
 41 80  1  0  0  0  0
 41 81  1  0  0  0  0
M  CHG  1   6   1
M  END
