4gk4_ligand
 OpenBabel08222323353D

 51 55  0  0  0  0  0  0  0  0999 V2000
   -8.5980    5.3350   47.5880 O   0  0  0  0  0  0  0  0  0  0  0  0
   -8.4230    4.5950   48.5760 C   0  0  0  0  0  0  0  0  0  0  0  0
   -8.0360    3.3070   48.4240 N   0  0  0  0  0  0  0  0  0  0  0  0
   -8.6210    5.0460   49.8710 C   0  0  0  0  0  0  0  0  0  0  0  0
   -9.0160    6.2600   50.3720 N   0  0  0  0  0  4  0  0  0  0  0  0
   -9.3800    7.5390   49.9740 C   0  0  0  0  0  0  0  0  0  0  0  0
   -9.6350    8.1870   51.2230 C   0  0  0  0  0  0  0  0  0  0  0  0
   -9.4020    7.3170   52.2550 N   0  0  0  0  0  0  0  0  0  0  0  0
   -9.5140    7.3460   53.7160 C   0  0  0  0  0  0  0  0  0  0  0  0
   -8.3140    7.9750   54.4080 C   0  0  0  0  0  0  0  0  0  0  0  0
   -6.9770    7.4720   53.8850 C   0  0  0  0  0  0  0  0  0  0  0  0
   -5.8830    8.4300   54.3080 C   0  0  0  0  0  0  0  0  0  0  0  0
   -9.0370    6.1170   51.6900 C   0  0  0  0  0  0  0  0  0  0  0  0
   -8.6660    4.8430   52.1400 N   0  0  0  0  0  0  0  0  0  0  0  0
   -8.4140    4.1890   50.9470 C   0  0  0  0  0  0  0  0  0  0  0  0
   -8.0220    2.9260   50.7560 N   0  0  0  0  0  0  0  0  0  0  0  0
   -7.8020    2.0320   51.8990 C   0  0  0  0  0  0  0  0  0  0  0  0
   -7.8310    2.4910   49.4970 C   0  0  0  0  0  0  0  0  0  0  0  0
   -7.4640    1.3070   49.3060 O   0  0  0  0  0  0  0  0  0  0  0  0
  -10.0860    9.5990   51.4430 C   0  0  0  0  0  0  0  0  0  0  0  0
   -9.2390   10.4910   52.1030 C   0  0  0  0  0  0  0  0  0  0  0  0
   -7.9160   10.3030   52.5990 C   0  0  0  0  0  0  0  0  0  0  0  0
   -7.5770   11.5030   53.1270 N   0  0  0  0  0  0  0  0  0  0  0  0
   -8.6430   12.4030   52.9590 N   0  0  0  0  0  0  0  0  0  0  0  0
   -9.6600   11.7890   52.3310 C   0  0  0  0  0  0  0  0  0  0  0  0
  -10.9170   12.2190   51.9340 C   0  0  0  0  0  0  0  0  0  0  0  0
  -11.7640   11.3290   51.2950 C   0  0  0  0  0  0  0  0  0  0  0  0
  -11.3560   10.0220   51.0530 C   0  0  0  0  0  0  0  0  0  0  0  0
  -12.3210    9.1030   50.3460 C   0  0  0  0  0  0  0  0  0  0  0  0
   -7.8970    2.9450   47.5023 H   0  0  0  0  0  0  0  0  0  0  0  0
   -9.4529    7.9457   48.9664 H   0  0  0  0  0  0  0  0  0  0  0  0
   -9.6208    6.3124   54.0769 H   0  0  0  0  0  0  0  0  0  0  0  0
  -10.4115    7.9227   53.9843 H   0  0  0  0  0  0  0  0  0  0  0  0
   -8.3743    7.7489   55.4828 H   0  0  0  0  0  0  0  0  0  0  0  0
   -8.3581    9.0640   54.2593 H   0  0  0  0  0  0  0  0  0  0  0  0
   -7.0101    7.4135   52.7871 H   0  0  0  0  0  0  0  0  0  0  0  0
   -6.7721    6.4739   54.2994 H   0  0  0  0  0  0  0  0  0  0  0  0
   -4.9143    8.0696   53.9316 H   0  0  0  0  0  0  0  0  0  0  0  0
   -5.8510    8.4883   55.4060 H   0  0  0  0  0  0  0  0  0  0  0  0
   -6.0890    9.4279   53.8937 H   0  0  0  0  0  0  0  0  0  0  0  0
   -8.5986    4.4872   53.1043 H   0  0  0  0  0  0  0  0  0  0  0  0
   -8.0105    2.5735   52.8335 H   0  0  0  0  0  0  0  0  0  0  0  0
   -6.7571    1.6882   51.8998 H   0  0  0  0  0  0  0  0  0  0  0  0
   -8.4735    1.1643   51.8204 H   0  0  0  0  0  0  0  0  0  0  0  0
   -7.3128    9.3971   52.5617 H   0  0  0  0  0  0  0  0  0  0  0  0
   -6.6785   11.7218   53.5807 H   0  0  0  0  0  0  0  0  0  0  0  0
  -11.2327   13.2389   52.1214 H   0  0  0  0  0  0  0  0  0  0  0  0
  -12.7500   11.6529   50.9819 H   0  0  0  0  0  0  0  0  0  0  0  0
  -11.8616    8.1107   50.2265 H   0  0  0  0  0  0  0  0  0  0  0  0
  -12.5628    9.5167   49.3559 H   0  0  0  0  0  0  0  0  0  0  0  0
  -13.2422    9.0113   50.9401 H   0  0  0  0  0  0  0  0  0  0  0  0
  1  2  2  0  0  0  0
  2  3  1  0  0  0  0
  2  4  1  0  0  0  0
  3 18  1  0  0  0  0
  3 30  1  0  0  0  0
  4  5  1  0  0  0  0
  4 15  2  0  0  0  0
  5  6  1  0  0  0  0
  5 13  2  0  0  0  0
  6  7  2  0  0  0  0
  6 31  1  0  0  0  0
  7  8  1  0  0  0  0
  7 20  1  0  0  0  0
  8  9  1  0  0  0  0
  8 13  1  0  0  0  0
  9 10  1  0  0  0  0
  9 32  1  0  0  0  0
  9 33  1  0  0  0  0
 10 11  1  0  0  0  0
 10 34  1  0  0  0  0
 10 35  1  0  0  0  0
 11 12  1  0  0  0  0
 11 36  1  0  0  0  0
 11 37  1  0  0  0  0
 12 38  1  0  0  0  0
 12 39  1  0  0  0  0
 12 40  1  0  0  0  0
 13 14  1  0  0  0  0
 14 15  1  0  0  0  0
 14 41  1  0  0  0  0
 15 16  1  0  0  0  0
 16 17  1  0  0  0  0
 16 18  1  0  0  0  0
 17 42  1  0  0  0  0
 17 43  1  0  0  0  0
 17 44  1  0  0  0  0
 18 19  2  0  0  0  0
 20 21  1  0  0  0  0
 20 28  2  0  0  0  0
 21 22  2  0  0  0  0
 21 25  1  0  0  0  0
 22 23  1  0  0  0  0
 22 45  1  0  0  0  0
 23 24  1  0  0  0  0
 23 46  1  0  0  0  0
 24 25  2  0  0  0  0
 25 26  1  0  0  0  0
 26 27  2  0  0  0  0
 26 47  1  0  0  0  0
 27 28  1  0  0  0  0
 27 48  1  0  0  0  0
 28 29  1  0  0  0  0
 29 49  1  0  0  0  0
 29 50  1  0  0  0  0
 29 51  1  0  0  0  0
M  END
