4glw_ligand
 OpenBabel08222323353D

 25 26  0  0  0  0  0  0  0  0999 V2000
  -10.4340   -3.2040  -20.7560 C   0  0  0  0  0  0  0  0  0  0  0  0
  -12.9480   -2.2240  -20.2890 C   0  0  0  0  0  0  0  0  0  0  0  0
   -9.0900   -3.7820  -21.0240 C   0  0  0  0  0  0  0  0  0  0  0  0
  -12.0820   -1.6450  -21.2100 C   0  0  0  0  0  0  0  0  0  0  0  0
  -14.5520   -0.5980  -20.7280 C   0  0  0  0  0  0  0  0  0  0  0  0
  -12.5270   -0.5810  -21.8800 C   0  0  0  0  0  0  0  0  0  0  0  0
  -12.5530   -3.3240  -19.6300 N   0  0  0  0  0  0  0  0  0  0  0  0
  -15.7990   -0.0580  -20.5420 N   0  0  0  0  0  0  0  0  0  0  0  0
  -13.7270   -0.0820  -21.6580 N   0  0  0  0  0  0  0  0  0  0  0  0
  -14.1480   -1.6870  -20.0490 N   0  0  0  0  0  0  0  0  0  0  0  0
  -11.2940   -3.8000  -19.8100 C   0  0  0  0  0  0  0  0  0  0  0  0
  -10.8890   -4.9020  -19.0730 O   0  0  0  0  0  0  0  0  0  0  0  0
  -11.8560   -5.6070  -18.3260 C   0  0  0  0  0  0  0  0  0  0  0  0
  -10.8450   -2.1340  -21.4540 N   0  0  0  0  0  0  0  0  0  0  0  0
  -11.7000   -0.0360  -22.7910 N   0  0  0  0  0  0  0  0  0  0  0  0
   -8.5050   -3.7798  -20.1043 H   0  0  0  0  0  0  0  0  0  0  0  0
   -9.2009   -4.8052  -21.3831 H   0  0  0  0  0  0  0  0  0  0  0  0
   -8.5826   -3.1832  -21.7804 H   0  0  0  0  0  0  0  0  0  0  0  0
  -16.4445   -0.4827  -19.8762 H   0  0  0  0  0  0  0  0  0  0  0  0
  -16.0808    0.7683  -21.0695 H   0  0  0  0  0  0  0  0  0  0  0  0
  -12.3098   -4.9361  -17.5966 H   0  0  0  0  0  0  0  0  0  0  0  0
  -12.6247   -5.9890  -18.9978 H   0  0  0  0  0  0  0  0  0  0  0  0
  -11.3780   -6.4387  -17.8085 H   0  0  0  0  0  0  0  0  0  0  0  0
  -11.9973    0.7798  -23.3262 H   0  0  0  0  0  0  0  0  0  0  0  0
  -10.7758   -0.4387  -22.9463 H   0  0  0  0  0  0  0  0  0  0  0  0
  1  3  1  0  0  0  0
  1 11  2  0  0  0  0
  2  4  1  0  0  0  0
  2  7  2  0  0  0  0
  3 16  1  0  0  0  0
  3 17  1  0  0  0  0
  3 18  1  0  0  0  0
  4  6  1  0  0  0  0
  4 14  2  0  0  0  0
  5  8  1  0  0  0  0
  5  9  1  0  0  0  0
  5 10  2  0  0  0  0
  6  9  2  0  0  0  0
  6 15  1  0  0  0  0
  7 11  1  0  0  0  0
  8 19  1  0  0  0  0
  8 20  1  0  0  0  0
 10  2  1  0  0  0  0
 11 12  1  0  0  0  0
 12 13  1  0  0  0  0
 13 21  1  0  0  0  0
 13 22  1  0  0  0  0
 13 23  1  0  0  0  0
 14  1  1  0  0  0  0
 15 24  1  0  0  0  0
 15 25  1  0  0  0  0
M  END
