4gm8_ligand
 OpenBabel08222323353D

 98100  0  0  1  0  0  0  0  0999 V2000
   11.7350  -16.8730   34.4450 C   0  0  0  0  0  0  0  0  0  0  0  0
   11.1110  -16.6020   35.7810 C   0  0  0  0  0  0  0  0  0  0  0  0
   10.7210  -17.8690   36.5170 C   0  0  0  0  0  0  0  0  0  0  0  0
   11.9750  -15.6460   36.6390 C   0  0  0  0  0  0  0  0  0  0  0  0
   11.4910  -14.4070   36.4730 O   0  0  0  0  0  0  0  0  0  0  0  0
   13.9720  -15.3790   38.0480 C   0  0  0  0  0  0  0  0  0  0  0  0
   14.1320  -13.9720   37.3840 C   0  0  0  0  0  0  0  0  0  0  0  0
   13.3920  -15.0970   39.3910 C   0  0  0  0  0  0  0  0  0  0  0  0
   12.9970  -16.2690   37.3390 N   0  0  0  0  0  0  0  0  0  0  0  0
   13.7480  -12.9950   38.2300 O   0  0  0  0  0  0  0  0  0  0  0  0
   15.3010  -16.0680   38.1310 C   0  0  0  0  0  0  0  0  0  0  0  0
   16.1120  -15.3900   39.2060 C   0  0  0  0  0  0  0  0  0  0  0  0
   12.9840  -16.3230   40.1760 C   0  0  0  0  0  0  0  0  0  0  0  0
   14.6350  -14.0690   36.0990 N   0  0  0  0  0  0  0  0  0  0  0  0
   14.9360  -12.8250   35.3180 C   0  0  2  0  0  0  0  0  0  0  0  0
   13.7580  -11.8300   35.1560 C   0  0  0  0  0  0  0  0  0  0  0  0
   14.2240  -10.5780   35.1610 O   0  0  0  0  0  0  0  0  0  0  0  0
   15.5140  -13.2370   33.9930 C   0  0  0  0  0  0  0  0  0  0  0  0
   16.3220  -12.1190   33.4070 C   0  0  0  0  0  0  0  0  0  0  0  0
   16.1910  -12.2530   31.8960 C   0  0  0  0  0  0  0  0  0  0  0  0
   16.9820  -13.4220   31.4410 N   0  0  0  0  0  0  0  0  0  0  0  0
   18.3580  -13.3430   31.5470 C   0  0  0  0  0  3  0  0  0  0  0  0
   18.9570  -12.1060   31.5420 N   0  0  0  0  0  0  0  0  0  0  0  0
   19.5040  -14.0550   31.4820 N   0  0  0  0  0  0  0  0  0  0  0  0
   12.5470  -12.4880   35.0840 N   0  0  0  0  0  0  0  0  0  0  0  0
    9.7810  -10.0890   35.9010 O   0  0  0  0  0  0  0  0  0  0  0  0
   11.2500  -11.7260   34.9630 C   0  0  0  0  0  0  0  0  0  0  0  0
   10.8550  -10.8370   36.2020 C   0  0  0  0  0  0  0  0  0  0  0  0
   11.3400  -10.8800   33.7510 C   0  0  0  0  0  0  0  0  0  0  0  0
   10.2330  -12.7350   34.6660 C   0  0  0  0  0  0  0  0  0  0  0  0
   11.1060  -11.8700   32.6350 C   0  0  0  0  0  0  0  0  0  0  0  0
   10.6160  -13.1480   33.2600 C   0  0  0  0  0  0  0  0  0  0  0  0
   11.6680  -10.9500   37.3420 N   0  0  0  0  0  0  0  0  0  0  0  0
   11.1850  -10.2050   38.5280 C   0  0  0  0  0  0  0  0  0  0  0  0
   10.6010  -11.2820   39.4180 C   0  0  0  0  0  0  0  0  0  0  0  0
   12.2530   -9.3180   39.1850 C   0  0  0  0  0  0  0  0  0  0  0  0
   12.1970   -7.9280   38.9420 C   0  0  0  0  0  0  0  0  0  0  0  0
   13.1380   -7.0530   39.5040 C   0  0  0  0  0  0  0  0  0  0  0  0
   14.1450   -7.5780   40.3110 C   0  0  0  0  0  0  0  0  0  0  0  0
   14.2170   -8.9660   40.5580 C   0  0  0  0  0  0  0  0  0  0  0  0
   13.2650   -9.8440   39.9910 C   0  0  0  0  0  0  0  0  0  0  0  0
    9.4510  -11.1280   40.1840 C   0  0  0  0  0  0  0  0  0  0  0  0
    8.9950  -12.2300   40.9360 C   0  0  0  0  0  0  0  0  0  0  0  0
    9.6810  -13.4570   40.8900 C   0  0  0  0  0  0  0  0  0  0  0  0
   10.8020  -13.5940   40.1050 C   0  0  0  0  0  0  0  0  0  0  0  0
   11.2580  -12.5070   39.3600 C   0  0  0  0  0  0  0  0  0  0  0  0
   15.0380   -6.7430   40.8400 F   0  0  0  0  0  0  0  0  0  0  0  0
    9.2940  -14.5200   41.5890 F   0  0  0  0  0  0  0  0  0  0  0  0
   11.0901  -17.5542   33.8705 H   0  0  0  0  0  0  0  0  0  0  0  0
   12.7221  -17.3367   34.5886 H   0  0  0  0  0  0  0  0  0  0  0  0
   11.8506  -15.9271   33.8956 H   0  0  0  0  0  0  0  0  0  0  0  0
   10.1712  -16.0674   35.5784 H   0  0  0  0  0  0  0  0  0  0  0  0
   10.2707  -17.6065   37.4857 H   0  0  0  0  0  0  0  0  0  0  0  0
   11.6160  -18.4863   36.6840 H   0  0  0  0  0  0  0  0  0  0  0  0
    9.9933  -18.4333   35.9154 H   0  0  0  0  0  0  0  0  0  0  0  0
   12.5010  -14.4668   39.2534 H   0  0  0  0  0  0  0  0  0  0  0  0
   14.1421  -14.5482   39.9793 H   0  0  0  0  0  0  0  0  0  0  0  0
   13.0795  -17.2651   37.3693 H   0  0  0  0  0  0  0  0  0  0  0  0
   15.8224  -15.9905   37.1655 H   0  0  0  0  0  0  0  0  0  0  0  0
   15.1564  -17.1283   38.3856 H   0  0  0  0  0  0  0  0  0  0  0  0
   17.0944  -15.8782   39.2870 H   0  0  0  0  0  0  0  0  0  0  0  0
   15.5837  -15.4675   40.1677 H   0  0  0  0  0  0  0  0  0  0  0  0
   16.2497  -14.3297   38.9476 H   0  0  0  0  0  0  0  0  0  0  0  0
   12.5696  -16.0153   41.1474 H   0  0  0  0  0  0  0  0  0  0  0  0
   13.8633  -16.9636   40.3388 H   0  0  0  0  0  0  0  0  0  0  0  0
   12.2222  -16.8822   39.6130 H   0  0  0  0  0  0  0  0  0  0  0  0
   14.7976  -14.9676   35.6915 H   0  0  0  0  0  0  0  0  0  0  0  0
   15.7191  -12.2835   35.8689 H   0  0  0  0  0  0  0  0  0  0  0  0
   14.6956  -13.4929   33.3040 H   0  0  0  0  0  0  0  0  0  0  0  0
   16.1606  -14.1152   34.1366 H   0  0  0  0  0  0  0  0  0  0  0  0
   17.3759  -12.2102   33.7087 H   0  0  0  0  0  0  0  0  0  0  0  0
   15.9280  -11.1475   33.7400 H   0  0  0  0  0  0  0  0  0  0  0  0
   16.5698  -11.3411   31.4113 H   0  0  0  0  0  0  0  0  0  0  0  0
   15.1336  -12.3978   31.6295 H   0  0  0  0  0  0  0  0  0  0  0  0
   16.5231  -14.2618   31.0601 H   0  0  0  0  0  0  0  0  0  0  0  0
   19.9812  -12.0294   31.6201 H   0  0  0  0  0  0  0  0  0  0  0  0
   18.3817  -11.2556   31.4601 H   0  0  0  0  0  0  0  0  0  0  0  0
   19.4705  -15.0843   31.4650 H   0  0  0  0  0  0  0  0  0  0  0  0
   20.4113  -13.5686   31.4494 H   0  0  0  0  0  0  0  0  0  0  0  0
   12.5286  -13.4874   35.1125 H   0  0  0  0  0  0  0  0  0  0  0  0
   12.3327  -10.4140   33.6657 H   0  0  0  0  0  0  0  0  0  0  0  0
   10.5668  -10.0976   33.7554 H   0  0  0  0  0  0  0  0  0  0  0  0
    9.2207  -12.3058   34.6966 H   0  0  0  0  0  0  0  0  0  0  0  0
   10.2930  -13.5831   35.3639 H   0  0  0  0  0  0  0  0  0  0  0  0
   12.0451  -12.0533   32.0923 H   0  0  0  0  0  0  0  0  0  0  0  0
   10.3501  -11.4788   31.9381 H   0  0  0  0  0  0  0  0  0  0  0  0
    9.7451  -13.5422   32.7158 H   0  0  0  0  0  0  0  0  0  0  0  0
   11.4121  -13.9069   33.2770 H   0  0  0  0  0  0  0  0  0  0  0  0
   12.5084  -11.4918   37.3522 H   0  0  0  0  0  0  0  0  0  0  0  0
   10.3716   -9.5337   38.2154 H   0  0  0  0  0  0  0  0  0  0  0  0
   11.4120   -7.5299   38.3093 H   0  0  0  0  0  0  0  0  0  0  0  0
   13.0828   -5.9872   39.3139 H   0  0  0  0  0  0  0  0  0  0  0  0
   15.0071   -9.3611   41.1863 H   0  0  0  0  0  0  0  0  0  0  0  0
   13.3198  -10.9101   40.1791 H   0  0  0  0  0  0  0  0  0  0  0  0
    8.9182  -10.1841   40.2026 H   0  0  0  0  0  0  0  0  0  0  0  0
    8.1098  -12.1309   41.5538 H   0  0  0  0  0  0  0  0  0  0  0  0
   11.3278  -14.5411   40.0657 H   0  0  0  0  0  0  0  0  0  0  0  0
   12.1329  -12.6175   38.7296 H   0  0  0  0  0  0  0  0  0  0  0  0
  1 49  1  0  0  0  0
  1 50  1  0  0  0  0
  1 51  1  0  0  0  0
  2  1  1  0  0  0  0
  2  3  1  0  0  0  0
  2 52  1  0  0  0  0
  3 53  1  0  0  0  0
  3 54  1  0  0  0  0
  3 55  1  0  0  0  0
  4  2  1  0  0  0  0
  4  5  2  0  0  0  0
  6  8  1  0  0  0  0
  6  9  1  0  0  0  0
  6 11  1  0  0  0  0
  7  6  1  0  0  0  0
  7 10  2  0  0  0  0
  8 13  1  0  0  0  0
  8 56  1  0  0  0  0
  8 57  1  0  0  0  0
  9  4  1  0  0  0  0
  9 58  1  0  0  0  0
 11 12  1  0  0  0  0
 11 59  1  0  0  0  0
 11 60  1  0  0  0  0
 12 61  1  0  0  0  0
 12 62  1  0  0  0  0
 12 63  1  0  0  0  0
 13 64  1  0  0  0  0
 13 65  1  0  0  0  0
 13 66  1  0  0  0  0
 14  7  1  0  0  0  0
 14 67  1  0  0  0  0
 15 14  1  0  0  0  0
 15 18  1  0  0  0  0
 15 68  1  1  0  0  0
 16 15  1  0  0  0  0
 16 17  2  0  0  0  0
 18 19  1  0  0  0  0
 18 69  1  0  0  0  0
 18 70  1  0  0  0  0
 19 20  1  0  0  0  0
 19 71  1  0  0  0  0
 19 72  1  0  0  0  0
 20 21  1  0  0  0  0
 20 73  1  0  0  0  0
 20 74  1  0  0  0  0
 21 22  1  0  0  0  0
 21 75  1  0  0  0  0
 22 23  1  0  0  0  0
 22 24  1  0  0  0  0
 23 76  1  0  0  0  0
 23 77  1  0  0  0  0
 24 78  1  0  0  0  0
 24 79  1  0  0  0  0
 25 16  1  0  0  0  0
 25 80  1  0  0  0  0
 27 25  1  0  0  0  0
 27 28  1  0  0  0  0
 27 29  1  0  0  0  0
 27 30  1  0  0  0  0
 28 26  2  0  0  0  0
 28 33  1  0  0  0  0
 29 31  1  0  0  0  0
 29 81  1  0  0  0  0
 29 82  1  0  0  0  0
 30 32  1  0  0  0  0
 30 83  1  0  0  0  0
 30 84  1  0  0  0  0
 31 32  1  0  0  0  0
 31 85  1  0  0  0  0
 31 86  1  0  0  0  0
 32 87  1  0  0  0  0
 32 88  1  0  0  0  0
 33 34  1  0  0  0  0
 33 89  1  0  0  0  0
 34 35  1  0  0  0  0
 34 36  1  0  0  0  0
 34 90  1  0  0  0  0
 35 42  2  0  0  0  0
 35 46  1  0  0  0  0
 36 37  2  0  0  0  0
 36 41  1  0  0  0  0
 37 38  1  0  0  0  0
 37 91  1  0  0  0  0
 38 39  2  0  0  0  0
 38 92  1  0  0  0  0
 39 40  1  0  0  0  0
 39 47  1  0  0  0  0
 40 41  2  0  0  0  0
 40 93  1  0  0  0  0
 41 94  1  0  0  0  0
 42 43  1  0  0  0  0
 42 95  1  0  0  0  0
 43 44  2  0  0  0  0
 43 96  1  0  0  0  0
 44 45  1  0  0  0  0
 44 48  1  0  0  0  0
 45 46  2  0  0  0  0
 45 97  1  0  0  0  0
 46 98  1  0  0  0  0
M  END
