4gne_ligand
 OpenBabel08222323353D

104103  0  0  1  0  0  0  0  0999 V2000
    8.7300  -30.7640    9.0740 N   0  3  0  0  0  0  0  0  0  0  0  0
    8.3660  -29.4180    8.5400 C   0  0  2  0  0  0  0  0  0  0  0  0
    8.8670  -28.3260    9.4820 C   0  0  0  0  0  0  0  0  0  0  0  0
    8.9730  -28.5400   10.6930 O   0  0  0  0  0  0  0  0  0  0  0  0
    6.8650  -29.3120    8.3630 C   0  0  0  0  0  0  0  0  0  0  0  0
    9.1650  -27.1600    8.9120 N   0  0  0  0  0  0  0  0  0  0  0  0
    9.8190  -26.0550    9.6010 C   0  0  2  0  0  0  0  0  0  0  0  0
    8.8580  -24.9820   10.0500 C   0  0  0  0  0  0  0  0  0  0  0  0
    7.7930  -24.8160    9.4620 O   0  0  0  0  0  0  0  0  0  0  0  0
   10.8050  -25.3920    8.6500 C   0  0  0  0  0  0  0  0  0  0  0  0
   11.8770  -26.3230    8.1230 C   0  0  0  0  0  0  0  0  0  0  0  0
   12.4430  -25.7750    6.8150 C   0  0  0  0  0  0  0  0  0  0  0  0
   11.4060  -25.7590    5.7790 N   0  0  0  0  0  0  0  0  0  0  0  0
   11.3790  -24.9370    4.7370 C   0  0  0  0  0  3  0  0  0  0  0  0
   12.3610  -24.0600    4.5440 N   0  0  0  0  0  0  0  0  0  0  0  0
   10.3700  -25.0090    3.8740 N   0  0  0  0  0  0  0  0  0  0  0  0
    9.2790  -24.2130   11.0490 N   0  0  0  0  0  0  0  0  0  0  0  0
    8.5620  -23.0110   11.4420 C   0  0  2  0  0  0  0  0  0  0  0  0
    9.4070  -21.7410   11.3010 C   0  0  0  0  0  0  0  0  0  0  0  0
   10.6470  -21.7700   11.2430 O   0  0  0  0  0  0  0  0  0  0  0  0
    8.0530  -23.0720   12.8940 C   0  0  2  0  0  0  0  0  0  0  0  0
    9.1690  -23.1600   13.7830 O   0  0  0  0  0  0  0  0  0  0  0  0
    7.1130  -24.2620   13.1020 C   0  0  0  0  0  0  0  0  0  0  0  0
    8.7110  -20.6170   11.2380 N   0  0  0  0  0  0  0  0  0  0  0  0
    9.3420  -19.3220   11.3430 C   0  0  2  0  0  0  0  0  0  0  0  0
    8.5660  -18.5240   12.3870 C   0  0  0  0  0  0  0  0  0  0  0  0
    7.4340  -18.8820   12.7490 O   0  0  0  0  0  0  0  0  0  0  0  0
    9.3450  -18.5930    9.9950 C   0  0  0  0  0  0  0  0  0  0  0  0
    8.0040  -18.4930    9.2970 C   0  0  0  0  0  0  0  0  0  0  0  0
    8.1190  -17.6690    8.0230 C   0  0  0  0  0  0  0  0  0  0  0  0
    8.2830  -16.1910    8.3210 C   0  0  0  0  0  0  0  0  0  0  0  0
    8.5760  -15.4120    7.0860 N   0  3  0  0  0  0  0  0  0  0  0  0
    9.1830  -17.4540   12.8730 N   0  0  0  0  0  0  0  0  0  0  0  0
    8.5850  -16.6080   13.8850 C   0  0  2  0  0  0  0  0  0  0  0  0
    8.5340  -15.1900   13.3560 C   0  0  0  0  0  0  0  0  0  0  0  0
    9.5360  -14.6800   12.8440 O   0  0  0  0  0  0  0  0  0  0  0  0
    9.4270  -16.6510   15.1640 C   0  0  0  0  0  0  0  0  0  0  0  0
    8.8360  -15.8320   16.2950 C   0  0  0  0  0  0  0  0  0  0  0  0
    7.4990  -16.3550   16.7780 C   0  0  0  0  0  0  0  0  0  0  0  0
    6.5570  -15.5810   16.9850 O   0  0  0  0  0  0  0  0  0  0  0  0
    7.4070  -17.6680   16.9710 N   0  0  0  0  0  0  0  0  0  0  0  0
    7.3670  -14.5620   13.4760 N   0  0  0  0  0  0  0  0  0  0  0  0
    7.2010  -13.1530   13.1120 C   0  0  2  0  0  0  0  0  0  0  0  0
    6.6170  -12.3240   14.2540 C   0  0  0  0  0  0  0  0  0  0  0  0
    6.2749  -12.8643   15.3397 O   0  5  0  0  0  0  0  0  0  0  0  0
    6.3130  -13.0050   11.8730 C   0  0  2  0  0  0  0  0  0  0  0  0
    5.0070  -13.5300   12.1560 O   0  0  0  0  0  0  0  0  0  0  0  0
    6.9160  -13.7800   10.7300 C   0  0  0  0  0  0  0  0  0  0  0  0
    6.4752  -11.0805   14.1082 O   0  0  0  0  0  0  0  0  0  0  0  0
    8.3948  -31.4769    8.4451 H   0  0  0  0  0  0  0  0  0  0  0  0
    8.3086  -30.8909    9.9808 H   0  0  0  0  0  0  0  0  0  0  0  0
    9.7322  -30.8330    9.1565 H   0  0  0  0  0  0  0  0  0  0  0  0
    8.8465  -29.2856    7.5594 H   0  0  0  0  0  0  0  0  0  0  0  0
    6.6116  -28.3165    7.9695 H   0  0  0  0  0  0  0  0  0  0  0  0
    6.3699  -29.4592    9.3342 H   0  0  0  0  0  0  0  0  0  0  0  0
    6.5237  -30.0832    7.6568 H   0  0  0  0  0  0  0  0  0  0  0  0
    8.9246  -27.0347    7.9495 H   0  0  0  0  0  0  0  0  0  0  0  0
   10.3515  -26.4519   10.4779 H   0  0  0  0  0  0  0  0  0  0  0  0
   11.2971  -24.5655    9.1836 H   0  0  0  0  0  0  0  0  0  0  0  0
   10.2430  -24.9922    7.7931 H   0  0  0  0  0  0  0  0  0  0  0  0
   11.4412  -27.3170    7.9439 H   0  0  0  0  0  0  0  0  0  0  0  0
   12.6855  -26.4052    8.8643 H   0  0  0  0  0  0  0  0  0  0  0  0
   13.2761  -26.4128    6.4846 H   0  0  0  0  0  0  0  0  0  0  0  0
   12.8082  -24.7504    6.9787 H   0  0  0  0  0  0  0  0  0  0  0  0
   10.6376  -26.4393    5.8665 H   0  0  0  0  0  0  0  0  0  0  0  0
   12.3329  -23.4255    3.7331 H   0  0  0  0  0  0  0  0  0  0  0  0
   13.1492  -24.0156    5.2055 H   0  0  0  0  0  0  0  0  0  0  0  0
    9.6107  -25.6884    4.0249 H   0  0  0  0  0  0  0  0  0  0  0  0
   10.3477  -24.3853    3.0546 H   0  0  0  0  0  0  0  0  0  0  0  0
   10.1103  -24.4678   11.5430 H   0  0  0  0  0  0  0  0  0  0  0  0
    7.6913  -22.9195   10.7760 H   0  0  0  0  0  0  0  0  0  0  0  0
    7.4978  -22.1476   13.1114 H   0  0  0  0  0  0  0  0  0  0  0  0
    9.6674  -23.9446   13.5871 H   0  0  0  0  0  0  0  0  0  0  0  0
    6.7674  -24.2781   14.1462 H   0  0  0  0  0  0  0  0  0  0  0  0
    7.6492  -25.1962   12.8789 H   0  0  0  0  0  0  0  0  0  0  0  0
    6.2469  -24.1669   12.4306 H   0  0  0  0  0  0  0  0  0  0  0  0
    7.7199  -20.6657   11.1142 H   0  0  0  0  0  0  0  0  0  0  0  0
   10.3823  -19.4491   11.6770 H   0  0  0  0  0  0  0  0  0  0  0  0
   10.0355  -19.1257    9.3246 H   0  0  0  0  0  0  0  0  0  0  0  0
    9.7142  -17.5708   10.1648 H   0  0  0  0  0  0  0  0  0  0  0  0
    7.2804  -18.0135    9.9727 H   0  0  0  0  0  0  0  0  0  0  0  0
    7.6536  -19.5041    9.0423 H   0  0  0  0  0  0  0  0  0  0  0  0
    7.2083  -17.8123    7.4229 H   0  0  0  0  0  0  0  0  0  0  0  0
    8.9928  -18.0161    7.4521 H   0  0  0  0  0  0  0  0  0  0  0  0
    9.1129  -16.0599    9.0310 H   0  0  0  0  0  0  0  0  0  0  0  0
    7.3530  -15.8120    8.7699 H   0  0  0  0  0  0  0  0  0  0  0  0
    8.6786  -14.4370    7.3202 H   0  0  0  0  0  0  0  0  0  0  0  0
    7.8175  -15.5222    6.4313 H   0  0  0  0  0  0  0  0  0  0  0  0
    9.4302  -15.7494    6.6706 H   0  0  0  0  0  0  0  0  0  0  0  0
   10.0930  -17.2239   12.5282 H   0  0  0  0  0  0  0  0  0  0  0  0
    7.5660  -16.9585   14.1058 H   0  0  0  0  0  0  0  0  0  0  0  0
   10.4296  -16.2602   14.9360 H   0  0  0  0  0  0  0  0  0  0  0  0
    9.5076  -17.6970   15.4947 H   0  0  0  0  0  0  0  0  0  0  0  0
    8.7004  -14.7984   15.9439 H   0  0  0  0  0  0  0  0  0  0  0  0
    9.5409  -15.8429   17.1394 H   0  0  0  0  0  0  0  0  0  0  0  0
    6.5474  -18.0675   17.2895 H   0  0  0  0  0  0  0  0  0  0  0  0
    8.1975  -18.2555   16.7976 H   0  0  0  0  0  0  0  0  0  0  0  0
    6.5785  -15.0680   13.8257 H   0  0  0  0  0  0  0  0  0  0  0  0
    8.1963  -12.7501   12.8731 H   0  0  0  0  0  0  0  0  0  0  0  0
    6.2342  -11.9424   11.5998 H   0  0  0  0  0  0  0  0  0  0  0  0
    4.4566  -13.4380   11.3873 H   0  0  0  0  0  0  0  0  0  0  0  0
    6.2792  -13.6746    9.8393 H   0  0  0  0  0  0  0  0  0  0  0  0
    6.9885  -14.8425   11.0052 H   0  0  0  0  0  0  0  0  0  0  0  0
    7.9204  -13.3886   10.5110 H   0  0  0  0  0  0  0  0  0  0  0  0
  1  2  1  0  0  0  0
  1 50  1  0  0  0  0
  1 51  1  0  0  0  0
  1 52  1  0  0  0  0
  2  3  1  0  0  0  0
  2  5  1  0  0  0  0
  2 53  1  6  0  0  0
  3  4  2  0  0  0  0
  3  6  1  0  0  0  0
  5 54  1  0  0  0  0
  5 55  1  0  0  0  0
  5 56  1  0  0  0  0
  6  7  1  0  0  0  0
  6 57  1  0  0  0  0
  7  8  1  0  0  0  0
  7 10  1  0  0  0  0
  7 58  1  1  0  0  0
  8  9  2  0  0  0  0
  8 17  1  0  0  0  0
 10 11  1  0  0  0  0
 10 59  1  0  0  0  0
 10 60  1  0  0  0  0
 11 12  1  0  0  0  0
 11 61  1  0  0  0  0
 11 62  1  0  0  0  0
 12 13  1  0  0  0  0
 12 63  1  0  0  0  0
 12 64  1  0  0  0  0
 13 14  1  0  0  0  0
 13 65  1  0  0  0  0
 14 15  1  0  0  0  0
 14 16  1  0  0  0  0
 15 66  1  0  0  0  0
 15 67  1  0  0  0  0
 16 68  1  0  0  0  0
 16 69  1  0  0  0  0
 17 18  1  0  0  0  0
 17 70  1  0  0  0  0
 18 19  1  0  0  0  0
 18 21  1  0  0  0  0
 18 71  1  6  0  0  0
 19 20  2  0  0  0  0
 19 24  1  0  0  0  0
 21 22  1  0  0  0  0
 21 23  1  0  0  0  0
 21 72  1  1  0  0  0
 22 73  1  0  0  0  0
 23 74  1  0  0  0  0
 23 75  1  0  0  0  0
 23 76  1  0  0  0  0
 24 25  1  0  0  0  0
 24 77  1  0  0  0  0
 25 26  1  0  0  0  0
 25 28  1  0  0  0  0
 25 78  1  1  0  0  0
 26 27  2  0  0  0  0
 26 33  1  0  0  0  0
 28 29  1  0  0  0  0
 28 79  1  0  0  0  0
 28 80  1  0  0  0  0
 29 30  1  0  0  0  0
 29 81  1  0  0  0  0
 29 82  1  0  0  0  0
 30 31  1  0  0  0  0
 30 83  1  0  0  0  0
 30 84  1  0  0  0  0
 31 32  1  0  0  0  0
 31 85  1  0  0  0  0
 31 86  1  0  0  0  0
 32 87  1  0  0  0  0
 32 88  1  0  0  0  0
 32 89  1  0  0  0  0
 33 34  1  0  0  0  0
 33 90  1  0  0  0  0
 34 35  1  0  0  0  0
 34 37  1  0  0  0  0
 34 91  1  1  0  0  0
 35 36  2  0  0  0  0
 35 42  1  0  0  0  0
 37 38  1  0  0  0  0
 37 92  1  0  0  0  0
 37 93  1  0  0  0  0
 38 39  1  0  0  0  0
 38 94  1  0  0  0  0
 38 95  1  0  0  0  0
 39 40  2  0  0  0  0
 39 41  1  0  0  0  0
 41 96  1  0  0  0  0
 41 97  1  0  0  0  0
 42 43  1  0  0  0  0
 42 98  1  0  0  0  0
 43 44  1  0  0  0  0
 43 46  1  0  0  0  0
 43 99  1  6  0  0  0
 44 45  1  0  0  0  0
 44 49  2  0  0  0  0
 46 47  1  0  0  0  0
 46 48  1  0  0  0  0
 46100  1  6  0  0  0
 47101  1  0  0  0  0
 48102  1  0  0  0  0
 48103  1  0  0  0  0
 48104  1  0  0  0  0
M  CHG  3   1   1  32   1  45  -1
M  END
