4gq6_ligand
 OpenBabel08222323353D

199203  0  0  1  0  0  0  0  0999 V2000
   -7.0750   20.5640   -5.8480 N   0  3  0  0  0  0  0  0  0  0  0  0
   -6.8240   19.0630   -5.7530 C   0  0  2  0  0  0  0  0  0  0  0  0
   -7.3470   18.4670   -4.4360 C   0  0  0  0  0  0  0  0  0  0  0  0
   -7.1700   19.0560   -3.3540 O   0  0  0  0  0  0  0  0  0  0  0  0
   -5.3330   18.7030   -5.9220 C   0  0  0  0  0  0  0  0  0  0  0  0
   -4.8840   18.8860   -7.2700 O   0  0  0  0  0  0  0  0  0  0  0  0
   -7.9850   17.2950   -4.5420 N   0  0  0  0  0  0  0  0  0  0  0  0
   -8.5200   16.5760   -3.3730 C   0  0  2  0  0  0  0  0  0  0  0  0
   -7.3840   16.1920   -2.3630 C   0  0  0  0  0  0  0  0  0  0  0  0
   -6.2660   15.8730   -2.7620 O   0  0  0  0  0  0  0  0  0  0  0  0
   -9.3170   15.3530   -3.8360 C   0  0  0  0  0  0  0  0  0  0  0  0
   -7.6480   16.2460   -1.0640 N   0  0  0  0  0  0  0  0  0  0  0  0
   -6.6010   15.8620   -0.0890 C   0  0  2  0  0  0  0  0  0  0  0  0
   -7.0390   14.7230    0.8510 C   0  0  0  0  0  0  0  0  0  0  0  0
   -8.2100   14.4640    1.0470 O   0  0  0  0  0  0  0  0  0  0  0  0
   -6.1240   17.0210    0.7900 C   0  0  0  0  0  0  0  0  0  0  0  0
   -6.3770   18.4250    0.3040 C   0  0  0  0  0  0  0  0  0  0  0  0
   -6.5740   19.3670    1.4830 C   0  0  0  0  0  0  0  0  0  0  0  0
   -7.1610   20.6410    1.0400 N   0  0  0  0  0  0  0  0  0  0  0  0
   -6.6770   21.8580    1.2870 C   0  0  0  0  0  3  0  0  0  0  0  0
   -5.5860   22.0320    2.0290 N   0  0  0  0  0  0  0  0  0  0  0  0
   -7.3110   22.9260    0.8050 N   0  0  0  0  0  0  0  0  0  0  0  0
   -6.0610   14.0910    1.4620 N   0  0  0  0  0  0  0  0  0  0  0  0
   -6.2880   13.1960    2.6150 C   0  0  2  0  0  0  0  0  0  0  0  0
   -6.7290   13.8750    3.8920 C   0  0  0  0  0  0  0  0  0  0  0  0
   -6.1060   14.8530    4.3340 O   0  0  0  0  0  0  0  0  0  0  0  0
   -4.9280   12.5780    2.9400 C   0  0  0  0  0  0  0  0  0  0  0  0
   -5.0300   11.6280    4.0490 C   0  0  0  0  0  0  0  0  0  0  0  0
   -5.7770   10.4560    4.0470 C   0  0  0  0  0  0  0  0  0  0  0  0
   -4.5080   11.7630    5.4120 C   0  0  0  0  0  0  0  0  0  0  0  0
   -5.7140    9.8210    5.2680 N   0  0  0  0  0  0  0  0  0  0  0  0
   -4.9290   10.5440    6.1240 C   0  0  0  0  0  0  0  0  0  0  0  0
   -3.7590   12.7090    6.0760 C   0  0  0  0  0  0  0  0  0  0  0  0
   -4.6440   10.3250    7.4530 C   0  0  0  0  0  0  0  0  0  0  0  0
   -3.4210   12.4480    7.4190 C   0  0  0  0  0  0  0  0  0  0  0  0
   -3.8530   11.2880    8.0910 C   0  0  0  0  0  0  0  0  0  0  0  0
   -7.6890   13.2620    4.6100 N   0  0  0  0  0  0  0  0  0  0  0  0
   -7.9250   13.5790    6.0520 C   0  0  2  0  0  0  0  0  0  0  0  0
   -8.1200   12.3350    6.8200 C   0  0  0  0  0  0  0  0  0  0  0  0
   -8.6260   11.3700    6.2710 O   0  0  0  0  0  0  0  0  0  0  0  0
   -9.1430   14.4640    6.3450 C   0  0  0  0  0  0  0  0  0  0  0  0
   -8.5740   15.8110    6.7870 C   0  0  0  0  0  0  0  0  0  0  0  0
   -9.4040   16.9930    6.3880 C   0  0  0  0  0  0  0  0  0  0  0  0
  -10.3700   17.3190    7.4340 N   0  0  0  0  0  0  0  0  0  0  0  0
  -10.1880   18.2020    8.4070 C   0  0  0  0  0  3  0  0  0  0  0  0
   -9.0500   18.8780    8.5250 N   0  0  0  0  0  0  0  0  0  0  0  0
  -11.1740   18.4410    9.2450 N   0  0  0  0  0  0  0  0  0  0  0  0
   -7.7370   12.3500    8.0940 N   0  0  0  0  0  0  0  0  0  0  0  0
   -7.8670   11.1650    8.9270 C   0  0  2  0  0  0  0  0  0  0  0  0
   -9.2950   10.6830    8.8760 C   0  0  0  0  0  0  0  0  0  0  0  0
  -10.2350   11.4590    8.9860 O   0  0  0  0  0  0  0  0  0  0  0  0
   -7.4800   11.4620   10.3930 C   0  0  0  0  0  0  0  0  0  0  0  0
   -7.3100   10.2330   11.2640 C   0  0  0  0  0  0  0  0  0  0  0  0
   -8.3410    9.7490   12.0160 C   0  0  0  0  0  0  0  0  0  0  0  0
   -6.1640    9.4980   11.2450 C   0  0  0  0  0  0  0  0  0  0  0  0
   -8.1910    8.6430   12.8070 C   0  0  0  0  0  0  0  0  0  0  0  0
   -6.0050    8.3670   12.0260 C   0  0  0  0  0  0  0  0  0  0  0  0
   -7.0490    7.9190   12.8150 C   0  0  0  0  0  0  0  0  0  0  0  0
   -9.5210    9.3580    8.7560 N   0  0  0  0  0  0  0  0  0  0  0  0
  -10.8930    8.9140    8.5260 C   0  0  2  0  0  0  0  0  0  0  0  0
  -11.8670    9.3200    9.6410 C   0  0  0  0  0  0  0  0  0  0  0  0
  -11.5790    9.0990   10.7810 O   0  0  0  0  0  0  0  0  0  0  0  0
  -10.7540    7.3850    8.4740 C   0  0  0  0  0  0  0  0  0  0  0  0
   -9.3940    7.2210    7.7680 C   0  0  0  0  0  0  0  0  0  0  0  0
   -8.5350    8.3130    8.4100 C   0  0  0  0  0  0  0  0  0  0  0  0
  -12.9710    9.9080    9.2010 N   0  0  0  0  0  0  0  0  0  0  0  0
  -14.0840   10.3230   10.0880 C   0  0  2  0  0  0  0  0  0  0  0  0
  -13.6810   11.4800   11.0330 C   0  0  0  0  0  0  0  0  0  0  0  0
  -14.4370   11.7460   11.9460 O   0  0  0  0  0  0  0  0  0  0  0  0
  -14.6800    9.1590   10.8680 C   0  0  0  0  0  0  0  0  0  0  0  0
  -12.6170   12.1910   10.7220 N   0  0  0  0  0  0  0  0  0  0  0  0
  -12.3650   13.4680   11.4160 C   0  0  2  0  0  0  0  0  0  0  0  0
  -13.4600   14.4520   10.9710 C   0  0  0  0  0  0  0  0  0  0  0  0
  -13.7910   14.5250    9.7710 O   0  0  0  0  0  0  0  0  0  0  0  0
  -10.9840   13.9190   11.0580 C   0  0  0  0  0  0  0  0  0  0  0  0
  -10.5880   15.2590   11.5510 C   0  0  0  0  0  0  0  0  0  0  0  0
   -9.2990   15.6840   10.9210 C   0  0  0  0  0  0  0  0  0  0  0  0
   -8.9260   16.9330   11.5410 N   0  0  0  0  0  0  0  0  0  0  0  0
   -7.7170   17.4110   11.5190 C   0  0  0  0  0  3  0  0  0  0  0  0
   -6.8060   16.7990   10.8230 N   0  0  0  0  0  0  0  0  0  0  0  0
   -7.4460   18.5770   12.1160 N   0  0  0  0  0  0  0  0  0  0  0  0
  -14.0300   15.2060   11.8970 N   0  0  0  0  0  0  0  0  0  0  0  0
  -15.0920   16.1320   11.4880 C   0  0  2  0  0  0  0  0  0  0  0  0
  -14.5740   17.3110   10.6750 C   0  0  0  0  0  0  0  0  0  0  0  0
  -13.3950   17.5760   10.7040 O   0  0  0  0  0  0  0  0  0  0  0  0
  -15.6840   16.6100   12.8310 C   0  0  0  0  0  0  0  0  0  0  0  0
  -14.5020   16.4570   13.7920 C   0  0  0  0  0  0  0  0  0  0  0  0
  -13.8200   15.1940   13.3480 C   0  0  0  0  0  0  0  0  0  0  0  0
  -15.4620   18.0320   10.0050 N   0  0  0  0  0  0  0  0  0  0  0  0
  -15.0380   19.3130    9.3220 C   0  0  0  0  0  0  0  0  0  0  0  0
  -14.4280   19.0320    7.9830 C   0  0  0  0  0  0  0  0  0  0  0  0
  -14.3320   17.8610    7.5710 O   0  0  0  0  0  0  0  0  0  0  0  0
  -13.9640   20.0760    7.2980 N   0  0  0  0  0  0  0  0  0  0  0  0
  -13.4800   19.9310    5.9060 C   0  0  2  0  0  0  0  0  0  0  0  0
  -12.0650   20.4890    5.8040 C   0  0  0  0  0  0  0  0  0  0  0  0
  -11.5386   21.0205    6.8179 O   0  5  0  0  0  0  0  0  0  0  0  0
  -14.4380   20.6420    4.9220 C   0  0  2  0  0  0  0  0  0  0  0  0
  -14.0340   20.3880    3.5650 O   0  0  0  0  0  0  0  0  0  0  0  0
  -14.4870   22.1570    5.2040 C   0  0  0  0  0  0  0  0  0  0  0  0
  -11.4292   20.4195    4.7184 O   0  0  0  0  0  0  0  0  0  0  0  0
   -6.7168   20.9097   -6.7245 H   0  0  0  0  0  0  0  0  0  0  0  0
   -6.6085   21.0316   -5.0866 H   0  0  0  0  0  0  0  0  0  0  0  0
   -8.0656   20.7430   -5.7958 H   0  0  0  0  0  0  0  0  0  0  0  0
   -7.3773   18.5896   -6.5775 H   0  0  0  0  0  0  0  0  0  0  0  0
   -5.1882   17.6497   -5.6399 H   0  0  0  0  0  0  0  0  0  0  0  0
   -4.7355   19.3458   -5.2588 H   0  0  0  0  0  0  0  0  0  0  0  0
   -3.9647   18.6542   -7.3306 H   0  0  0  0  0  0  0  0  0  0  0  0
   -8.1029   16.8921   -5.4496 H   0  0  0  0  0  0  0  0  0  0  0  0
   -9.2132   17.2505   -2.8491 H   0  0  0  0  0  0  0  0  0  0  0  0
   -9.7138   14.8205   -2.9591 H   0  0  0  0  0  0  0  0  0  0  0  0
   -8.6590   14.6809   -4.4063 H   0  0  0  0  0  0  0  0  0  0  0  0
  -10.1508   15.6791   -4.4751 H   0  0  0  0  0  0  0  0  0  0  0  0
   -8.5478   16.5439   -0.7452 H   0  0  0  0  0  0  0  0  0  0  0  0
   -5.7397   15.5065   -0.6737 H   0  0  0  0  0  0  0  0  0  0  0  0
   -5.0372   16.9095    0.9178 H   0  0  0  0  0  0  0  0  0  0  0  0
   -6.6205   16.9178    1.7661 H   0  0  0  0  0  0  0  0  0  0  0  0
   -7.2812   18.4344   -0.3224 H   0  0  0  0  0  0  0  0  0  0  0  0
   -5.5156   18.7636   -0.2904 H   0  0  0  0  0  0  0  0  0  0  0  0
   -5.5999   19.5633    1.9547 H   0  0  0  0  0  0  0  0  0  0  0  0
   -7.2468   18.8946    2.2138 H   0  0  0  0  0  0  0  0  0  0  0  0
   -8.0281   20.5875    0.4866 H   0  0  0  0  0  0  0  0  0  0  0  0
   -5.2301   22.9821    2.2066 H   0  0  0  0  0  0  0  0  0  0  0  0
   -5.0975   21.2166    2.4256 H   0  0  0  0  0  0  0  0  0  0  0  0
   -8.1566   22.8066    0.2292 H   0  0  0  0  0  0  0  0  0  0  0  0
   -6.9555   23.8711    1.0081 H   0  0  0  0  0  0  0  0  0  0  0  0
   -5.1258   14.2216    1.1328 H   0  0  0  0  0  0  0  0  0  0  0  0
   -7.0230   12.4260    2.3377 H   0  0  0  0  0  0  0  0  0  0  0  0
   -4.2268   13.3790    3.2170 H   0  0  0  0  0  0  0  0  0  0  0  0
   -4.5510   12.0520    2.0505 H   0  0  0  0  0  0  0  0  0  0  0  0
   -6.3396   10.0871    3.1906 H   0  0  0  0  0  0  0  0  0  0  0  0
   -6.1864    8.9359    5.5011 H   0  0  0  0  0  0  0  0  0  0  0  0
   -3.4411   13.6209    5.5836 H   0  0  0  0  0  0  0  0  0  0  0  0
   -5.0131    9.4517    7.9785 H   0  0  0  0  0  0  0  0  0  0  0  0
   -2.8075   13.1645    7.9531 H   0  0  0  0  0  0  0  0  0  0  0  0
   -3.5666   11.1374    9.1256 H   0  0  0  0  0  0  0  0  0  0  0  0
   -8.2618   12.5735    4.1651 H   0  0  0  0  0  0  0  0  0  0  0  0
   -7.0292   14.0973    6.4248 H   0  0  0  0  0  0  0  0  0  0  0  0
   -9.7540   14.0235    7.1466 H   0  0  0  0  0  0  0  0  0  0  0  0
   -9.7568   14.5846    5.4402 H   0  0  0  0  0  0  0  0  0  0  0  0
   -7.5749   15.9257    6.3413 H   0  0  0  0  0  0  0  0  0  0  0  0
   -8.4879   15.8053    7.8836 H   0  0  0  0  0  0  0  0  0  0  0  0
   -9.9431   16.7590    5.4582 H   0  0  0  0  0  0  0  0  0  0  0  0
   -8.7451   17.8580    6.2220 H   0  0  0  0  0  0  0  0  0  0  0  0
  -11.2708   16.8199    7.4144 H   0  0  0  0  0  0  0  0  0  0  0  0
   -8.9321   19.5586    9.2891 H   0  0  0  0  0  0  0  0  0  0  0  0
   -8.2858   18.7213    7.8524 H   0  0  0  0  0  0  0  0  0  0  0  0
  -12.0593   17.9213    9.1603 H   0  0  0  0  0  0  0  0  0  0  0  0
  -11.0605   19.1477    9.9857 H   0  0  0  0  0  0  0  0  0  0  0  0
   -7.3545   13.1875    8.4842 H   0  0  0  0  0  0  0  0  0  0  0  0
   -7.2033   10.3797    8.5362 H   0  0  0  0  0  0  0  0  0  0  0  0
   -8.2681   12.0891   10.8353 H   0  0  0  0  0  0  0  0  0  0  0  0
   -6.5291   12.0150   10.3912 H   0  0  0  0  0  0  0  0  0  0  0  0
   -9.3005   10.2524   11.9858 H   0  0  0  0  0  0  0  0  0  0  0  0
   -5.3514    9.8084   10.5982 H   0  0  0  0  0  0  0  0  0  0  0  0
   -9.0117    8.3381   13.4461 H   0  0  0  0  0  0  0  0  0  0  0  0
   -5.0622    7.8320   12.0195 H   0  0  0  0  0  0  0  0  0  0  0  0
   -6.9553    7.0221   13.4165 H   0  0  0  0  0  0  0  0  0  0  0  0
  -11.2651    9.3081    7.5688 H   0  0  0  0  0  0  0  0  0  0  0  0
  -11.5667    6.9277    7.8906 H   0  0  0  0  0  0  0  0  0  0  0  0
  -10.7371    6.9489    9.4837 H   0  0  0  0  0  0  0  0  0  0  0  0
   -9.4901    7.3807    6.6839 H   0  0  0  0  0  0  0  0  0  0  0  0
   -8.9696    6.2237    7.9555 H   0  0  0  0  0  0  0  0  0  0  0  0
   -8.0266    7.9368    9.3100 H   0  0  0  0  0  0  0  0  0  0  0  0
   -7.7875    8.6956    7.6995 H   0  0  0  0  0  0  0  0  0  0  0  0
  -13.0573   10.0805    8.2198 H   0  0  0  0  0  0  0  0  0  0  0  0
  -14.8800   10.7077    9.4335 H   0  0  0  0  0  0  0  0  0  0  0  0
  -15.4976    9.5256   11.5060 H   0  0  0  0  0  0  0  0  0  0  0  0
  -13.9015    8.7017   11.4963 H   0  0  0  0  0  0  0  0  0  0  0  0
  -15.0715    8.4088   10.1652 H   0  0  0  0  0  0  0  0  0  0  0  0
  -11.9835   11.8670   10.0194 H   0  0  0  0  0  0  0  0  0  0  0  0
  -12.4259   13.3283   12.5054 H   0  0  0  0  0  0  0  0  0  0  0  0
  -10.9073   13.9284    9.9607 H   0  0  0  0  0  0  0  0  0  0  0  0
  -10.2739   13.1863   11.4690 H   0  0  0  0  0  0  0  0  0  0  0  0
  -10.4630   15.2215   12.6432 H   0  0  0  0  0  0  0  0  0  0  0  0
  -11.3733   15.9860   11.2965 H   0  0  0  0  0  0  0  0  0  0  0  0
   -9.4342   15.8238    9.8383 H   0  0  0  0  0  0  0  0  0  0  0  0
   -8.5221   14.9258   11.0987 H   0  0  0  0  0  0  0  0  0  0  0  0
   -9.6559   17.4740   12.0263 H   0  0  0  0  0  0  0  0  0  0  0  0
   -5.8443   17.1668   10.7968 H   0  0  0  0  0  0  0  0  0  0  0  0
   -7.0457   15.9461   10.2976 H   0  0  0  0  0  0  0  0  0  0  0  0
   -8.1738   19.0555   12.6658 H   0  0  0  0  0  0  0  0  0  0  0  0
   -6.5095   18.9963   12.0259 H   0  0  0  0  0  0  0  0  0  0  0  0
  -15.8519   15.6009   10.8959 H   0  0  0  0  0  0  0  0  0  0  0  0
  -16.5302   15.9782   13.1390 H   0  0  0  0  0  0  0  0  0  0  0  0
  -16.0122   17.6581   12.7694 H   0  0  0  0  0  0  0  0  0  0  0  0
  -14.8538   16.3650   14.8301 H   0  0  0  0  0  0  0  0  0  0  0  0
  -13.8204   17.3166   13.7106 H   0  0  0  0  0  0  0  0  0  0  0  0
  -12.7480   15.2149   13.5937 H   0  0  0  0  0  0  0  0  0  0  0  0
  -14.2846   14.3097   13.8086 H   0  0  0  0  0  0  0  0  0  0  0  0
  -16.4133   17.7285    9.9511 H   0  0  0  0  0  0  0  0  0  0  0  0
  -14.2990   19.8291    9.9525 H   0  0  0  0  0  0  0  0  0  0  0  0
  -15.9192   19.9575    9.1875 H   0  0  0  0  0  0  0  0  0  0  0  0
  -13.9421   20.9763    7.7328 H   0  0  0  0  0  0  0  0  0  0  0  0
  -13.4538   18.8613    5.6508 H   0  0  0  0  0  0  0  0  0  0  0  0
  -15.4487   20.2322    5.0652 H   0  0  0  0  0  0  0  0  0  0  0  0
  -13.1519   20.7147    3.4320 H   0  0  0  0  0  0  0  0  0  0  0  0
  -15.1734   22.6402    4.4931 H   0  0  0  0  0  0  0  0  0  0  0  0
  -13.4798   22.5841    5.0892 H   0  0  0  0  0  0  0  0  0  0  0  0
  -14.8428   22.3276    6.2308 H   0  0  0  0  0  0  0  0  0  0  0  0
  1  2  1  0  0  0  0
  1101  1  0  0  0  0
  1102  1  0  0  0  0
  1103  1  0  0  0  0
  2  3  1  0  0  0  0
  2  5  1  0  0  0  0
  2104  1  6  0  0  0
  3  4  2  0  0  0  0
  3  7  1  0  0  0  0
  5  6  1  0  0  0  0
  5105  1  0  0  0  0
  5106  1  0  0  0  0
  6107  1  0  0  0  0
  7  8  1  0  0  0  0
  7108  1  0  0  0  0
  8  9  1  0  0  0  0
  8 11  1  0  0  0  0
  8109  1  1  0  0  0
  9 10  2  0  0  0  0
  9 12  1  0  0  0  0
 11110  1  0  0  0  0
 11111  1  0  0  0  0
 11112  1  0  0  0  0
 12 13  1  0  0  0  0
 12113  1  0  0  0  0
 13 14  1  0  0  0  0
 13 16  1  0  0  0  0
 13114  1  6  0  0  0
 14 15  2  0  0  0  0
 14 23  1  0  0  0  0
 16 17  1  0  0  0  0
 16115  1  0  0  0  0
 16116  1  0  0  0  0
 17 18  1  0  0  0  0
 17117  1  0  0  0  0
 17118  1  0  0  0  0
 18 19  1  0  0  0  0
 18119  1  0  0  0  0
 18120  1  0  0  0  0
 19 20  1  0  0  0  0
 19121  1  0  0  0  0
 20 21  1  0  0  0  0
 20 22  1  0  0  0  0
 21122  1  0  0  0  0
 21123  1  0  0  0  0
 22124  1  0  0  0  0
 22125  1  0  0  0  0
 23 24  1  0  0  0  0
 23126  1  0  0  0  0
 24 25  1  0  0  0  0
 24 27  1  0  0  0  0
 24127  1  6  0  0  0
 25 26  2  0  0  0  0
 25 37  1  0  0  0  0
 27 28  1  0  0  0  0
 27128  1  0  0  0  0
 27129  1  0  0  0  0
 28 29  2  0  0  0  0
 28 30  1  0  0  0  0
 29 31  1  0  0  0  0
 29130  1  0  0  0  0
 30 32  2  0  0  0  0
 30 33  1  0  0  0  0
 31 32  1  0  0  0  0
 31131  1  0  0  0  0
 32 34  1  0  0  0  0
 33 35  2  0  0  0  0
 33132  1  0  0  0  0
 34 36  2  0  0  0  0
 34133  1  0  0  0  0
 35 36  1  0  0  0  0
 35134  1  0  0  0  0
 36135  1  0  0  0  0
 37 38  1  0  0  0  0
 37136  1  0  0  0  0
 38 39  1  0  0  0  0
 38 41  1  0  0  0  0
 38137  1  1  0  0  0
 39 40  2  0  0  0  0
 39 48  1  0  0  0  0
 41 42  1  0  0  0  0
 41138  1  0  0  0  0
 41139  1  0  0  0  0
 42 43  1  0  0  0  0
 42140  1  0  0  0  0
 42141  1  0  0  0  0
 43 44  1  0  0  0  0
 43142  1  0  0  0  0
 43143  1  0  0  0  0
 44 45  1  0  0  0  0
 44144  1  0  0  0  0
 45 46  1  0  0  0  0
 45 47  1  0  0  0  0
 46145  1  0  0  0  0
 46146  1  0  0  0  0
 47147  1  0  0  0  0
 47148  1  0  0  0  0
 48 49  1  0  0  0  0
 48149  1  0  0  0  0
 49 50  1  0  0  0  0
 49 52  1  0  0  0  0
 49150  1  6  0  0  0
 50 51  2  0  0  0  0
 50 59  1  0  0  0  0
 52 53  1  0  0  0  0
 52151  1  0  0  0  0
 52152  1  0  0  0  0
 53 54  2  0  0  0  0
 53 55  1  0  0  0  0
 54 56  1  0  0  0  0
 54153  1  0  0  0  0
 55 57  2  0  0  0  0
 55154  1  0  0  0  0
 56 58  2  0  0  0  0
 56155  1  0  0  0  0
 57 58  1  0  0  0  0
 57156  1  0  0  0  0
 58157  1  0  0  0  0
 59 60  1  0  0  0  0
 59 65  1  0  0  0  0
 60 61  1  0  0  0  0
 60 63  1  0  0  0  0
 60158  1  6  0  0  0
 61 62  2  0  0  0  0
 61 66  1  0  0  0  0
 63 64  1  0  0  0  0
 63159  1  0  0  0  0
 63160  1  0  0  0  0
 64 65  1  0  0  0  0
 64161  1  0  0  0  0
 64162  1  0  0  0  0
 65163  1  0  0  0  0
 65164  1  0  0  0  0
 66 67  1  0  0  0  0
 66165  1  0  0  0  0
 67 68  1  0  0  0  0
 67 70  1  0  0  0  0
 67166  1  6  0  0  0
 68 69  2  0  0  0  0
 68 71  1  0  0  0  0
 70167  1  0  0  0  0
 70168  1  0  0  0  0
 70169  1  0  0  0  0
 71 72  1  0  0  0  0
 71170  1  0  0  0  0
 72 73  1  0  0  0  0
 72 75  1  0  0  0  0
 72171  1  1  0  0  0
 73 74  2  0  0  0  0
 73 82  1  0  0  0  0
 75 76  1  0  0  0  0
 75172  1  0  0  0  0
 75173  1  0  0  0  0
 76 77  1  0  0  0  0
 76174  1  0  0  0  0
 76175  1  0  0  0  0
 77 78  1  0  0  0  0
 77176  1  0  0  0  0
 77177  1  0  0  0  0
 78 79  1  0  0  0  0
 78178  1  0  0  0  0
 79 80  1  0  0  0  0
 79 81  1  0  0  0  0
 80179  1  0  0  0  0
 80180  1  0  0  0  0
 81181  1  0  0  0  0
 81182  1  0  0  0  0
 82 83  1  0  0  0  0
 82 88  1  0  0  0  0
 83 84  1  0  0  0  0
 83 86  1  0  0  0  0
 83183  1  6  0  0  0
 84 85  2  0  0  0  0
 84 89  1  0  0  0  0
 86 87  1  0  0  0  0
 86184  1  0  0  0  0
 86185  1  0  0  0  0
 87 88  1  0  0  0  0
 87186  1  0  0  0  0
 87187  1  0  0  0  0
 88188  1  0  0  0  0
 88189  1  0  0  0  0
 89 90  1  0  0  0  0
 89190  1  0  0  0  0
 90 91  1  0  0  0  0
 90191  1  0  0  0  0
 90192  1  0  0  0  0
 91 92  2  0  0  0  0
 91 93  1  0  0  0  0
 93 94  1  0  0  0  0
 93193  1  0  0  0  0
 94 95  1  0  0  0  0
 94 97  1  0  0  0  0
 94194  1  6  0  0  0
 95 96  1  0  0  0  0
 95100  2  0  0  0  0
 97 98  1  0  0  0  0
 97 99  1  0  0  0  0
 97195  1  1  0  0  0
 98196  1  0  0  0  0
 99197  1  0  0  0  0
 99198  1  0  0  0  0
 99199  1  0  0  0  0
M  CHG  2   1   1  96  -1
M  END
