4gs6_ligand
 OpenBabel08222323353D

 52 53  0  0  1  0  0  0  0  0999 V2000
   15.0090   18.5770   55.3550 C   0  0  0  0  0  0  0  0  0  0  0  0
   14.4020   17.6370   54.4810 C   0  0  0  0  0  0  0  0  0  0  0  0
   14.2440   19.6720   55.8090 C   0  0  0  0  0  0  0  0  0  0  0  0
   13.0920   17.8480   54.0770 C   0  0  0  0  0  0  0  0  0  0  0  0
   12.3620   18.9370   54.5250 C   0  0  0  0  0  0  0  0  0  0  0  0
   17.1290   17.4400   55.3210 O   0  0  0  0  0  0  0  0  0  0  0  0
   12.9450   19.8400   55.3920 C   0  0  0  0  0  0  0  0  0  0  0  0
   14.7180   15.5760   53.1130 C   0  0  0  0  0  0  0  0  0  0  0  0
   19.3330   16.5290   54.5660 C   0  0  0  0  0  0  0  0  0  0  0  0
   15.1630   16.4920   53.9690 C   0  0  0  0  0  0  0  0  0  0  0  0
   16.3960   14.9490   51.4140 C   0  0  1  0  0  0  0  0  0  0  0  0
   16.4190   18.5020   55.8530 C   0  0  0  0  0  0  0  0  0  0  0  0
   18.5780   17.3700   55.5820 C   0  0  2  0  0  0  0  0  0  0  0  0
   15.5290   14.4800   52.5580 C   0  0  0  0  0  0  0  0  0  0  0  0
   16.8910   19.3470   56.6200 O   0  0  0  0  0  0  0  0  0  0  0  0
   17.7680   14.2850   51.2320 C   0  0  1  0  0  0  0  0  0  0  0  0
   18.7840   14.7650   52.2380 C   0  0  1  0  0  0  0  0  0  0  0  0
   19.1470   13.8340   53.1190 O   0  0  0  0  0  0  0  0  0  0  0  0
   19.2310   16.0190   52.1810 C   0  0  0  0  0  0  0  0  0  0  0  0
   19.4540   16.8980   53.2970 C   0  0  0  0  0  0  0  0  0  0  0  0
   15.6860   14.8940   50.1960 O   0  0  0  0  0  0  0  0  0  0  0  0
   17.6830   12.8680   51.2040 O   0  0  0  0  0  0  0  0  0  0  0  0
   14.7940   20.6070   56.6690 O   0  0  0  0  0  0  0  0  0  0  0  0
   11.0270   19.1980   54.1650 O   0  0  0  0  0  0  0  0  0  0  0  0
   10.3490   18.2530   53.3440 C   0  0  0  0  0  0  0  0  0  0  0  0
   18.7820   16.8750   56.9870 C   0  0  0  0  0  0  0  0  0  0  0  0
   12.6286   17.1445   53.3948 H   0  0  0  0  0  0  0  0  0  0  0  0
   12.3728   20.6894   55.7471 H   0  0  0  0  0  0  0  0  0  0  0  0
   13.6771   15.6418   52.7998 H   0  0  0  0  0  0  0  0  0  0  0  0
   18.8412   15.5452   54.5547 H   0  0  0  0  0  0  0  0  0  0  0  0
   20.3566   16.4228   54.9544 H   0  0  0  0  0  0  0  0  0  0  0  0
   16.1871   16.3817   54.3224 H   0  0  0  0  0  0  0  0  0  0  0  0
   16.6039   16.0093   51.6202 H   0  0  0  0  0  0  0  0  0  0  0  0
   18.9807   18.3917   55.5186 H   0  0  0  0  0  0  0  0  0  0  0  0
   14.8572   13.6884   52.1945 H   0  0  0  0  0  0  0  0  0  0  0  0
   16.1746   14.0770   53.3522 H   0  0  0  0  0  0  0  0  0  0  0  0
   18.1354   14.5969   50.2432 H   0  0  0  0  0  0  0  0  0  0  0  0
   17.9901   15.1026   52.9205 H   0  0  0  0  0  0  0  0  0  0  0  0
   19.7850   14.2001   53.7202 H   0  0  0  0  0  0  0  0  0  0  0  0
   18.5135   16.5496   51.5379 H   0  0  0  0  0  0  0  0  0  0  0  0
   20.2028   15.9534   51.6699 H   0  0  0  0  0  0  0  0  0  0  0  0
   20.4865   17.2616   53.1889 H   0  0  0  0  0  0  0  0  0  0  0  0
   18.7541   17.7358   53.1616 H   0  0  0  0  0  0  0  0  0  0  0  0
   16.1758   15.3537   49.5242 H   0  0  0  0  0  0  0  0  0  0  0  0
   18.5295   12.5057   50.9702 H   0  0  0  0  0  0  0  0  0  0  0  0
   15.6899   20.3628   56.8694 H   0  0  0  0  0  0  0  0  0  0  0  0
    9.3229   18.6013   53.1548 H   0  0  0  0  0  0  0  0  0  0  0  0
   10.3173   17.2794   53.8549 H   0  0  0  0  0  0  0  0  0  0  0  0
   10.8828   18.1482   52.3879 H   0  0  0  0  0  0  0  0  0  0  0  0
   19.8591   16.8155   57.2020 H   0  0  0  0  0  0  0  0  0  0  0  0
   18.3313   15.8772   57.0933 H   0  0  0  0  0  0  0  0  0  0  0  0
   18.3049   17.5701   57.6936 H   0  0  0  0  0  0  0  0  0  0  0  0
  1  2  2  0  0  0  0
  1  3  1  0  0  0  0
  1 12  1  0  0  0  0
  2  4  1  0  0  0  0
  2 10  1  0  0  0  0
  3  7  2  0  0  0  0
  3 23  1  0  0  0  0
  4  5  2  0  0  0  0
  4 27  1  0  0  0  0
  5  7  1  0  0  0  0
  5 24  1  0  0  0  0
  6 13  1  0  0  0  0
  7 28  1  0  0  0  0
  8 14  1  0  0  0  0
  8 29  1  0  0  0  0
  9 20  1  0  0  0  0
  9 30  1  0  0  0  0
  9 31  1  0  0  0  0
 10  8  2  0  0  0  0
 10 32  1  0  0  0  0
 11 16  1  0  0  0  0
 11 21  1  0  0  0  0
 11 33  1  1  0  0  0
 12  6  1  0  0  0  0
 12 15  2  0  0  0  0
 13  9  1  0  0  0  0
 13 26  1  0  0  0  0
 13 34  1  6  0  0  0
 14 11  1  0  0  0  0
 14 35  1  0  0  0  0
 14 36  1  0  0  0  0
 16 17  1  0  0  0  0
 16 22  1  0  0  0  0
 16 37  1  6  0  0  0
 17 18  1  0  0  0  0
 17 19  1  0  0  0  0
 17 38  1  1  0  0  0
 18 39  1  0  0  0  0
 19 20  1  0  0  0  0
 19 40  1  0  0  0  0
 19 41  1  0  0  0  0
 20 42  1  0  0  0  0
 20 43  1  0  0  0  0
 21 44  1  0  0  0  0
 22 45  1  0  0  0  0
 23 46  1  0  0  0  0
 24 25  1  0  0  0  0
 25 47  1  0  0  0  0
 25 48  1  0  0  0  0
 25 49  1  0  0  0  0
 26 50  1  0  0  0  0
 26 51  1  0  0  0  0
 26 52  1  0  0  0  0
M  END
