4gvu_ligand
 OpenBabel08222323353D

145148  0  0  1  0  0  0  0  0999 V2000
   17.6140   10.7720    2.6350 C   0  0  0  0  0  0  0  0  0  0  0  0
   16.6570   10.9530    1.4800 C   0  0  0  0  0  0  0  0  0  0  0  0
   16.6200   12.1040    0.8330 O   0  0  0  0  0  0  0  0  0  0  0  0
   17.7940   12.0220    3.4490 C   0  0  0  0  0  0  0  0  0  0  0  0
   16.4860   12.3240    4.1240 C   0  0  0  0  0  0  0  0  0  0  0  0
   16.6160   13.4070    5.1630 C   0  0  0  0  0  0  0  0  0  0  0  0
   17.2360   14.6680    4.5860 C   0  0  0  0  0  0  0  0  0  0  0  0
   15.9460    9.9590    1.1600 N   0  0  0  0  0  0  0  0  0  0  0  0
   14.9660    9.9840    0.0740 C   0  0  2  0  0  0  0  0  0  0  0  0
   13.7680    9.2070    0.5240 C   0  0  0  0  0  0  0  0  0  0  0  0
   13.8690    8.0460    0.8710 O   0  0  0  0  0  0  0  0  0  0  0  0
   15.5680    9.3520   -1.1730 C   0  0  0  0  0  0  0  0  0  0  0  0
   14.5820    9.3630   -2.3280 C   0  0  0  0  0  0  0  0  0  0  0  0
   15.0320    9.0870   -3.5630 C   0  0  0  0  0  0  0  0  0  0  0  0
   16.2130    8.8310   -3.7060 O   0  0  0  0  0  0  0  0  0  0  0  0
   14.2080    9.0520   -4.6070 N   0  0  0  0  0  0  0  0  0  0  0  0
   12.6190    9.8900    0.5000 N   0  0  0  0  0  0  0  0  0  0  0  0
   11.4490    9.1140    0.9120 C   0  0  2  0  0  0  0  0  0  0  0  0
   11.2270    7.9380   -0.0210 C   0  0  0  0  0  0  0  0  0  0  0  0
   11.6350    7.9290   -1.1850 O   0  0  0  0  0  0  0  0  0  0  0  0
   10.2070   10.0510    0.9230 C   0  0  2  0  0  0  0  0  0  0  0  0
   10.2150   10.9370   -0.2140 O   0  0  0  0  0  0  0  0  0  0  0  0
   10.1760   11.0000    2.1000 C   0  0  0  0  0  0  0  0  0  0  0  0
   10.5270    6.8830    0.4740 N   0  0  0  0  0  0  0  0  0  0  0  0
   10.2830    5.6920   -0.1460 C   0  0  0  0  0  0  0  0  0  0  0  0
   10.8930    4.5320    0.2270 C   0  0  0  0  0  0  0  0  0  0  0  0
   11.9200    4.4580    1.3140 C   0  0  0  0  0  0  0  0  0  0  0  0
    9.3300    5.5780   -1.2500 C   0  0  0  0  0  0  0  0  0  0  0  0
    8.9930    4.4440   -1.6110 O   0  0  0  0  0  0  0  0  0  0  0  0
    8.7730    6.6800   -1.7690 N   0  0  0  0  0  0  0  0  0  0  0  0
    7.6350    6.5460   -2.7020 C   0  0  2  0  0  0  0  0  0  0  0  0
    8.0060    6.7320   -4.1830 C   0  0  2  0  0  0  0  0  0  0  0  0
    9.3800    6.7450   -4.4470 O   0  0  0  0  0  0  0  0  0  0  0  0
    6.4900    7.4370   -2.2170 C   0  0  0  0  0  0  0  0  0  0  0  0
    5.5050    7.5200   -3.3750 C   0  0  0  0  0  0  0  0  0  0  0  0
    6.1010    8.3190   -4.5560 C   0  0  1  0  0  0  0  0  0  0  0  0
    6.3940    9.6390   -4.1740 O   0  0  0  0  0  0  0  0  0  0  0  0
    7.3300    7.6750   -5.0190 N   0  3  2  0  0  0  0  0  0  0  0  0
    7.8650    7.8940   -6.3890 C   0  0  2  0  0  0  0  0  0  0  0  0
    7.6810    9.4140   -6.5210 C   0  0  2  0  0  0  0  0  0  0  0  0
    6.7340    9.8060   -7.4750 O   0  0  0  0  0  0  0  0  0  0  0  0
    6.9470    7.0820   -7.3480 C   0  0  0  0  0  0  0  0  0  0  0  0
    7.0360    5.5980   -7.0890 C   0  0  0  0  0  0  0  0  0  0  0  0
    6.0470    4.9380   -6.3410 C   0  0  0  0  0  0  0  0  0  0  0  0
    8.1150    4.8800   -7.5880 C   0  0  0  0  0  0  0  0  0  0  0  0
    6.1900    3.5620   -6.1050 C   0  0  0  0  0  0  0  0  0  0  0  0
    8.2220    3.4980   -7.3740 C   0  0  0  0  0  0  0  0  0  0  0  0
    7.2590    2.8380   -6.6270 C   0  0  0  0  0  0  0  0  0  0  0  0
    8.8030   10.3070   -6.3660 N   0  3  2  0  0  0  0  0  0  0  0  0
   10.0180    9.7520   -5.7770 C   0  0  2  0  0  0  0  0  0  0  0  0
   10.3020   10.4080   -4.4310 C   0  0  1  0  0  0  0  0  0  0  0  0
   11.3830   11.3180   -4.3400 O   0  0  0  0  0  0  0  0  0  0  0  0
   11.1890    9.8990   -6.7830 C   0  0  0  0  0  0  0  0  0  0  0  0
   10.9740    8.8210   -7.8210 C   0  0  0  0  0  0  0  0  0  0  0  0
   11.5190    7.5520   -7.6240 C   0  0  0  0  0  0  0  0  0  0  0  0
   10.2390    9.0840   -8.9850 C   0  0  0  0  0  0  0  0  0  0  0  0
   11.3420    6.5320   -8.5710 C   0  0  0  0  0  0  0  0  0  0  0  0
   10.0430    8.0620   -9.9190 C   0  0  0  0  0  0  0  0  0  0  0  0
   10.4270    5.7990  -10.6180 O   0  0  0  0  0  0  0  0  0  0  0  0
   10.5950    6.7950   -9.7080 C   0  0  0  0  0  0  0  0  0  0  0  0
    8.6310   11.7100   -6.7060 C   0  0  0  0  0  0  0  0  0  0  0  0
    9.1760   10.8710   -3.6610 N   0  3  0  0  0  0  0  0  0  0  0  0
    9.4770   11.5510   -2.4470 C   0  0  2  0  0  0  0  0  0  0  0  0
    9.8160   10.4700   -1.4340 C   0  0  2  0  0  0  0  0  0  0  0  0
    8.8910    9.4250   -1.3770 O   0  0  0  0  0  0  0  0  0  0  0  0
    8.4180   12.5760   -2.0640 C   0  0  0  0  0  0  0  0  0  0  0  0
    8.4890   13.6660   -3.1390 C   0  0  0  0  0  0  0  0  0  0  0  0
    7.0010   12.0430   -1.8610 C   0  0  0  0  0  0  0  0  0  0  0  0
   18.5932   10.4701    2.2350 H   0  0  0  0  0  0  0  0  0  0  0  0
   17.2256    9.9792    3.2912 H   0  0  0  0  0  0  0  0  0  0  0  0
   18.0780   12.8580    2.7929 H   0  0  0  0  0  0  0  0  0  0  0  0
   18.5778   11.8665    4.2049 H   0  0  0  0  0  0  0  0  0  0  0  0
   16.1196   11.4084    4.6113 H   0  0  0  0  0  0  0  0  0  0  0  0
   15.7617   12.6492    3.3627 H   0  0  0  0  0  0  0  0  0  0  0  0
   17.2515   13.0403    5.9826 H   0  0  0  0  0  0  0  0  0  0  0  0
   15.6164   13.6480    5.5537 H   0  0  0  0  0  0  0  0  0  0  0  0
   17.3134   15.4320    5.3736 H   0  0  0  0  0  0  0  0  0  0  0  0
   16.6043   15.0465    3.7689 H   0  0  0  0  0  0  0  0  0  0  0  0
   18.2393   14.4388    4.1978 H   0  0  0  0  0  0  0  0  0  0  0  0
   16.0590    9.1101    1.6764 H   0  0  0  0  0  0  0  0  0  0  0  0
   14.6759   11.0220   -0.1458 H   0  0  0  0  0  0  0  0  0  0  0  0
   15.8458    8.3115   -0.9490 H   0  0  0  0  0  0  0  0  0  0  0  0
   16.4661    9.9170   -1.4632 H   0  0  0  0  0  0  0  0  0  0  0  0
   14.1357   10.3678   -2.3631 H   0  0  0  0  0  0  0  0  0  0  0  0
   13.8020    8.6233   -2.0949 H   0  0  0  0  0  0  0  0  0  0  0  0
   14.5639    8.8444   -5.5182 H   0  0  0  0  0  0  0  0  0  0  0  0
   13.2327    9.2333   -4.4805 H   0  0  0  0  0  0  0  0  0  0  0  0
   12.5639   10.8496    0.2240 H   0  0  0  0  0  0  0  0  0  0  0  0
   11.6153    8.7283    1.9286 H   0  0  0  0  0  0  0  0  0  0  0  0
    9.3007    9.4276    0.9190 H   0  0  0  0  0  0  0  0  0  0  0  0
    9.2745   11.6276    2.0413 H   0  0  0  0  0  0  0  0  0  0  0  0
   11.0704   11.6400    2.0787 H   0  0  0  0  0  0  0  0  0  0  0  0
   10.1605   10.4227    3.0362 H   0  0  0  0  0  0  0  0  0  0  0  0
   10.1493    6.9916    1.3936 H   0  0  0  0  0  0  0  0  0  0  0  0
   10.6201    3.6137   -0.2909 H   0  0  0  0  0  0  0  0  0  0  0  0
   12.2606    3.4181    1.4264 H   0  0  0  0  0  0  0  0  0  0  0  0
   11.4780    4.8034    2.2602 H   0  0  0  0  0  0  0  0  0  0  0  0
   12.7760    5.0980    1.0539 H   0  0  0  0  0  0  0  0  0  0  0  0
    9.1239    7.5847   -1.5274 H   0  0  0  0  0  0  0  0  0  0  0  0
    7.2806    5.5082   -2.6168 H   0  0  0  0  0  0  0  0  0  0  0  0
    7.6745    5.7727   -4.6071 H   0  0  0  0  0  0  0  0  0  0  0  0
    9.7257    7.6136   -4.2777 H   0  0  0  0  0  0  0  0  0  0  0  0
    6.8664    8.4388   -1.9626 H   0  0  0  0  0  0  0  0  0  0  0  0
    6.0065    6.9920   -1.3349 H   0  0  0  0  0  0  0  0  0  0  0  0
    4.5870    8.0187   -3.0308 H   0  0  0  0  0  0  0  0  0  0  0  0
    5.2639    6.5021   -3.7152 H   0  0  0  0  0  0  0  0  0  0  0  0
    5.3696    8.3377   -5.3774 H   0  0  0  0  0  0  0  0  0  0  0  0
    5.5998   10.0637   -3.8720 H   0  0  0  0  0  0  0  0  0  0  0  0
    7.8825    8.4364   -4.6569 H   0  0  0  0  0  0  0  0  0  0  0  0
    8.9170    7.5936   -6.5033 H   0  0  0  0  0  0  0  0  0  0  0  0
    7.1403    9.6241   -5.5864 H   0  0  0  0  0  0  0  0  0  0  0  0
    7.1508    9.8677   -8.3265 H   0  0  0  0  0  0  0  0  0  0  0  0
    7.2523    7.2808   -8.3859 H   0  0  0  0  0  0  0  0  0  0  0  0
    5.9059    7.4065   -7.2034 H   0  0  0  0  0  0  0  0  0  0  0  0
    5.1916    5.4800   -5.9543 H   0  0  0  0  0  0  0  0  0  0  0  0
    8.8853    5.3949   -8.1507 H   0  0  0  0  0  0  0  0  0  0  0  0
    5.4497    3.0498   -5.5012 H   0  0  0  0  0  0  0  0  0  0  0  0
    9.0566    2.9469   -7.7922 H   0  0  0  0  0  0  0  0  0  0  0  0
    7.3370    1.7712   -6.4512 H   0  0  0  0  0  0  0  0  0  0  0  0
    9.1392   10.1085   -7.2953 H   0  0  0  0  0  0  0  0  0  0  0  0
    9.8588    8.6783   -5.5985 H   0  0  0  0  0  0  0  0  0  0  0  0
   10.6608    9.5496   -3.8441 H   0  0  0  0  0  0  0  0  0  0  0  0
   12.1129   10.9934   -4.8541 H   0  0  0  0  0  0  0  0  0  0  0  0
   12.1530    9.7540   -6.2734 H   0  0  0  0  0  0  0  0  0  0  0  0
   11.1685   10.8934   -7.2528 H   0  0  0  0  0  0  0  0  0  0  0  0
   12.0888    7.3506   -6.7241 H   0  0  0  0  0  0  0  0  0  0  0  0
    9.8261   10.0710   -9.1597 H   0  0  0  0  0  0  0  0  0  0  0  0
   11.7826    5.5538   -8.4156 H   0  0  0  0  0  0  0  0  0  0  0  0
    9.4594    8.2533  -10.8122 H   0  0  0  0  0  0  0  0  0  0  0  0
   10.8668    5.0146  -10.3121 H   0  0  0  0  0  0  0  0  0  0  0  0
    7.6289   11.8636   -7.1329 H   0  0  0  0  0  0  0  0  0  0  0  0
    9.3926   12.0047   -7.4430 H   0  0  0  0  0  0  0  0  0  0  0  0
    8.7413   12.3232   -5.7995 H   0  0  0  0  0  0  0  0  0  0  0  0
    8.6107   10.0687   -3.4312 H   0  0  0  0  0  0  0  0  0  0  0  0
    8.6451   11.5009   -4.2420 H   0  0  0  0  0  0  0  0  0  0  0  0
   10.3977   12.1307   -2.6091 H   0  0  0  0  0  0  0  0  0  0  0  0
   10.7215    9.9993   -1.8444 H   0  0  0  0  0  0  0  0  0  0  0  0
    9.2725    8.6910   -0.9098 H   0  0  0  0  0  0  0  0  0  0  0  0
    8.7190   13.0193   -1.1033 H   0  0  0  0  0  0  0  0  0  0  0  0
    7.7434   14.4449   -2.9212 H   0  0  0  0  0  0  0  0  0  0  0  0
    8.2799   13.2236   -4.1242 H   0  0  0  0  0  0  0  0  0  0  0  0
    9.4945   14.1119   -3.1432 H   0  0  0  0  0  0  0  0  0  0  0  0
    7.0094   11.2667   -1.0817 H   0  0  0  0  0  0  0  0  0  0  0  0
    6.6327   11.6121   -2.8037 H   0  0  0  0  0  0  0  0  0  0  0  0
    6.3404   12.8662   -1.5514 H   0  0  0  0  0  0  0  0  0  0  0  0
  1  2  1  0  0  0  0
  1  4  1  0  0  0  0
  1 69  1  0  0  0  0
  1 70  1  0  0  0  0
  2  3  2  0  0  0  0
  2  8  1  0  0  0  0
  4  5  1  0  0  0  0
  4 71  1  0  0  0  0
  4 72  1  0  0  0  0
  5  6  1  0  0  0  0
  5 73  1  0  0  0  0
  5 74  1  0  0  0  0
  6  7  1  0  0  0  0
  6 75  1  0  0  0  0
  6 76  1  0  0  0  0
  7 77  1  0  0  0  0
  7 78  1  0  0  0  0
  7 79  1  0  0  0  0
  8  9  1  0  0  0  0
  8 80  1  0  0  0  0
  9 10  1  0  0  0  0
  9 12  1  0  0  0  0
  9 81  1  6  0  0  0
 10 11  2  0  0  0  0
 10 17  1  0  0  0  0
 12 13  1  0  0  0  0
 12 82  1  0  0  0  0
 12 83  1  0  0  0  0
 13 14  1  0  0  0  0
 13 84  1  0  0  0  0
 13 85  1  0  0  0  0
 14 15  2  0  0  0  0
 14 16  1  0  0  0  0
 16 86  1  0  0  0  0
 16 87  1  0  0  0  0
 17 18  1  0  0  0  0
 17 88  1  0  0  0  0
 18 19  1  0  0  0  0
 18 21  1  0  0  0  0
 18 89  1  1  0  0  0
 19 20  2  0  0  0  0
 19 24  1  0  0  0  0
 21 22  1  0  0  0  0
 21 23  1  0  0  0  0
 21 90  1  6  0  0  0
 22 64  1  0  0  0  0
 23 91  1  0  0  0  0
 23 92  1  0  0  0  0
 23 93  1  0  0  0  0
 24 25  1  0  0  0  0
 24 94  1  0  0  0  0
 25 26  2  0  0  0  0
 25 28  1  0  0  0  0
 26 27  1  0  0  0  0
 26 95  1  0  0  0  0
 27 96  1  0  0  0  0
 27 97  1  0  0  0  0
 27 98  1  0  0  0  0
 28 29  2  0  0  0  0
 28 30  1  0  0  0  0
 30 31  1  0  0  0  0
 30 99  1  0  0  0  0
 31 32  1  0  0  0  0
 31 34  1  0  0  0  0
 31100  1  1  0  0  0
 32 33  1  0  0  0  0
 32 38  1  0  0  0  0
 32101  1  6  0  0  0
 33102  1  0  0  0  0
 34 35  1  0  0  0  0
 34103  1  0  0  0  0
 34104  1  0  0  0  0
 35 36  1  0  0  0  0
 35105  1  0  0  0  0
 35106  1  0  0  0  0
 36 37  1  0  0  0  0
 36 38  1  0  0  0  0
 36107  1  6  0  0  0
 37108  1  0  0  0  0
 38 39  1  0  0  0  0
 38109  1  1  0  0  0
 39 40  1  0  0  0  0
 39 42  1  0  0  0  0
 39110  1  6  0  0  0
 40 41  1  0  0  0  0
 40 49  1  0  0  0  0
 40111  1  1  0  0  0
 41112  1  0  0  0  0
 42 43  1  0  0  0  0
 42113  1  0  0  0  0
 42114  1  0  0  0  0
 43 44  2  0  0  0  0
 43 45  1  0  0  0  0
 44 46  1  0  0  0  0
 44115  1  0  0  0  0
 45 47  2  0  0  0  0
 45116  1  0  0  0  0
 46 48  2  0  0  0  0
 46117  1  0  0  0  0
 47 48  1  0  0  0  0
 47118  1  0  0  0  0
 48119  1  0  0  0  0
 49 50  1  0  0  0  0
 49 61  1  0  0  0  0
 49120  1  6  0  0  0
 50 51  1  0  0  0  0
 50 53  1  0  0  0  0
 50121  1  1  0  0  0
 51 52  1  0  0  0  0
 51 62  1  0  0  0  0
 51122  1  1  0  0  0
 52123  1  0  0  0  0
 53 54  1  0  0  0  0
 53124  1  0  0  0  0
 53125  1  0  0  0  0
 54 55  2  0  0  0  0
 54 56  1  0  0  0  0
 55 57  1  0  0  0  0
 55126  1  0  0  0  0
 56 58  2  0  0  0  0
 56127  1  0  0  0  0
 57 60  2  0  0  0  0
 57128  1  0  0  0  0
 58 60  1  0  0  0  0
 58129  1  0  0  0  0
 59130  1  0  0  0  0
 60 59  1  0  0  0  0
 61131  1  0  0  0  0
 61132  1  0  0  0  0
 61133  1  0  0  0  0
 62 63  1  0  0  0  0
 62134  1  0  0  0  0
 62135  1  0  0  0  0
 63 64  1  0  0  0  0
 63 66  1  0  0  0  0
 63136  1  6  0  0  0
 64 65  1  0  0  0  0
 64137  1  6  0  0  0
 65138  1  0  0  0  0
 66 67  1  0  0  0  0
 66 68  1  0  0  0  0
 66139  1  0  0  0  0
 67140  1  0  0  0  0
 67141  1  0  0  0  0
 67142  1  0  0  0  0
 68143  1  0  0  0  0
 68144  1  0  0  0  0
 68145  1  0  0  0  0
M  CHG  3  38   1  49   1  62   1
M  END
