4gz3_ligand
 OpenBabel08222323353D

 36 37  0  0  1  0  0  0  0  0999 V2000
  -15.2680   27.6930   14.4530 N   0  0  0  0  0  0  0  0  0  0  0  0
  -14.1350   27.2220   15.0720 C   0  0  0  0  0  0  0  0  0  0  0  0
  -13.5570   27.9670   16.0730 N   0  0  0  0  0  0  0  0  0  0  0  0
  -14.1050   29.1840   16.4430 C   0  0  0  0  0  0  0  0  0  0  0  0
  -15.2410   29.6690   15.8010 C   0  0  0  0  0  0  0  0  0  0  0  0
  -15.8380   28.8860   14.8170 C   0  0  0  0  0  0  0  0  0  0  0  0
  -13.6560   26.1330   14.7330 O   0  0  0  0  0  0  0  0  0  0  0  0
  -13.5770   29.8440   17.3340 O   0  0  0  0  0  0  0  0  0  0  0  0
  -15.8350   26.9120   13.3490 C   0  0  1  0  0  0  0  0  0  0  0  0
  -17.3050   26.5680   13.4620 C   0  0  2  0  0  0  0  0  0  0  0  0
  -17.5280   25.3740   14.1880 O   0  0  0  0  0  0  0  0  0  0  0  0
  -17.6570   26.4320   11.9900 C   0  0  1  0  0  0  0  0  0  0  0  0
  -16.7670   27.4570   11.3060 C   0  0  2  0  0  0  0  0  0  0  0  0
  -15.7190   27.7370   12.1990 O   0  0  0  0  0  0  0  0  0  0  0  0
  -17.3120   25.1560   11.5040 O   0  0  0  0  0  0  0  0  0  0  0  0
  -17.5290   28.7390   10.9970 C   0  0  0  0  0  0  0  0  0  0  0  0
  -18.0120   28.6690    9.6800 O   0  0  0  0  0  0  0  0  0  0  0  0
  -19.2280   29.6030    9.1830 P   0  0  2  0  0  0  0  0  0  0  0  0
  -19.4100   29.4290    7.7300 O   0  0  0  0  0  1  0  0  0  0  0  0
  -19.0060   31.0030    9.5910 O   0  0  0  0  0  0  0  0  0  0  0  0
  -20.4110   28.9260   10.0480 O   0  0  0  0  0  0  0  0  0  0  0  0
  -21.9950   29.0240    9.7840 P   0  0  0  0  0  0  0  0  0  0  0  0
  -22.3730   30.1090    8.8400 O   0  0  0  0  0  1  0  0  0  0  0  0
  -22.4530   27.7350    9.2390 O   0  0  0  0  0  1  0  0  0  0  0  0
  -22.5950   29.2790   11.1110 O   0  0  0  0  0  0  0  0  0  0  0  0
  -12.7376   27.6286   16.5357 H   0  0  0  0  0  0  0  0  0  0  0  0
  -15.6545   30.6417   16.0634 H   0  0  0  0  0  0  0  0  0  0  0  0
  -16.7565   29.2204   14.3369 H   0  0  0  0  0  0  0  0  0  0  0  0
  -15.2573   25.9833   13.2320 H   0  0  0  0  0  0  0  0  0  0  0  0
  -17.8719   27.3833   13.9351 H   0  0  0  0  0  0  0  0  0  0  0  0
  -18.4611   25.2008   14.2317 H   0  0  0  0  0  0  0  0  0  0  0  0
  -18.7240   26.6339   11.8145 H   0  0  0  0  0  0  0  0  0  0  0  0
  -16.3674   27.0387   10.3704 H   0  0  0  0  0  0  0  0  0  0  0  0
  -16.3994   24.9797   11.7003 H   0  0  0  0  0  0  0  0  0  0  0  0
  -16.8563   29.6033   11.0991 H   0  0  0  0  0  0  0  0  0  0  0  0
  -18.3721   28.8460   11.6953 H   0  0  0  0  0  0  0  0  0  0  0  0
  1  2  1  0  0  0  0
  1  6  1  0  0  0  0
  1  9  1  0  0  0  0
  2  3  1  0  0  0  0
  2  7  2  0  0  0  0
  3  4  1  0  0  0  0
  3 26  1  0  0  0  0
  4  5  1  0  0  0  0
  4  8  2  0  0  0  0
  5  6  2  0  0  0  0
  5 27  1  0  0  0  0
  6 28  1  0  0  0  0
  9 10  1  0  0  0  0
  9 14  1  0  0  0  0
  9 29  1  6  0  0  0
 10 11  1  0  0  0  0
 10 12  1  0  0  0  0
 10 30  1  1  0  0  0
 11 31  1  0  0  0  0
 12 13  1  0  0  0  0
 12 15  1  0  0  0  0
 12 32  1  6  0  0  0
 13 14  1  0  0  0  0
 13 16  1  0  0  0  0
 13 33  1  6  0  0  0
 15 34  1  0  0  0  0
 16 17  1  0  0  0  0
 16 35  1  0  0  0  0
 16 36  1  0  0  0  0
 17 18  1  0  0  0  0
 18 19  1  6  0  0  0
 18 20  2  0  0  0  0
 18 21  1  0  0  0  0
 21 22  1  0  0  0  0
 22 23  1  0  0  0  0
 22 24  1  0  0  0  0
 22 25  2  0  0  0  0
M  END
