4gzf_ligand
 OpenBabel08222323353D

129129  0  0  1  0  0  0  0  0999 V2000
   -4.1960   17.3050   -4.7760 N   0  3  0  0  0  0  0  0  0  0  0  0
   -5.1840   17.5310   -5.8100 C   0  0  1  0  0  0  0  0  0  0  0  0
   -5.1250   16.5710   -6.9860 C   0  0  0  0  0  0  0  0  0  0  0  0
   -3.7600   15.9580   -7.3780 C   0  0  0  0  0  0  0  0  0  0  0  0
   -3.3560   16.3040   -8.8270 C   0  0  0  0  0  0  0  0  0  0  0  0
   -1.8950   16.2970   -9.0130 N   0  0  0  0  0  0  0  0  0  0  0  0
   -1.1450   15.2650   -9.5000 C   0  0  1  0  0  3  0  0  0  0  0  0
    0.3660   15.3140   -9.4420 C   0  0  0  0  0  0  0  0  0  0  0  0
   -1.6260   14.2170  -10.0190 N   0  0  0  0  0  0  0  0  0  0  0  0
   -6.5220   17.5040   -5.1060 C   0  0  0  0  0  0  0  0  0  0  0  0
   -7.2390   18.4880   -5.1870 O   0  0  0  0  0  0  0  0  0  0  0  0
   -6.9030   16.4350   -4.4190 N   0  0  0  0  0  0  0  0  0  0  0  0
   -8.2320   16.2870   -3.8680 C   0  0  2  0  0  0  0  0  0  0  0  0
   -8.1660   15.9890   -2.3490 C   0  0  0  0  0  0  0  0  0  0  0  0
   -8.1440   14.8360   -1.9160 O   0  0  0  0  0  0  0  0  0  0  0  0
   -9.0310   15.2740   -4.7180 C   0  0  0  0  0  0  0  0  0  0  0  0
  -10.4770   15.0140   -4.2170 C   0  0  0  0  0  0  0  0  0  0  0  0
   -9.0980   15.6690   -6.2010 C   0  0  0  0  0  0  0  0  0  0  0  0
   -8.1620   17.0490   -1.5230 N   0  0  0  0  0  0  0  0  0  0  0  0
   -7.9220   17.0350   -0.0790 C   0  0  2  0  0  0  0  0  0  0  0  0
   -9.1890   17.2630    0.7190 C   0  0  0  0  0  0  0  0  0  0  0  0
   -7.0490   18.2040    0.2780 C   0  0  0  0  0  0  0  0  0  0  0  0
   -5.7730   18.1470   -0.5370 C   0  0  0  0  0  0  0  0  0  0  0  0
   -4.9180   19.3880   -0.2940 C   0  0  0  0  0  0  0  0  0  0  0  0
   -4.9460   16.8970   -0.2900 C   0  0  0  0  0  0  0  0  0  0  0  0
  -10.1510   16.2130    0.4390 N   0  3  0  0  0  0  0  0  0  0  0  0
  -11.1210   15.8600    1.4490 C   0  0  2  0  0  0  0  0  0  0  0  0
  -10.4740   15.1410    2.6160 C   0  0  0  0  0  0  0  0  0  0  0  0
   -9.4380   14.5450    2.4870 O   0  0  0  0  0  0  0  0  0  0  0  0
  -12.2480   15.1360    0.7250 C   0  0  0  0  0  0  0  0  0  0  0  0
  -12.7470   13.8920    1.4010 C   0  0  0  0  0  0  0  0  0  0  0  0
  -12.1280   12.6700    1.2060 C   0  0  0  0  0  0  0  0  0  0  0  0
  -13.8840   13.9710    2.2270 C   0  0  0  0  0  0  0  0  0  0  0  0
  -12.6140   11.5180    1.8520 C   0  0  0  0  0  0  0  0  0  0  0  0
  -14.3400   12.8110    2.8930 C   0  0  0  0  0  0  0  0  0  0  0  0
  -13.7290   11.5730    2.7060 C   0  0  0  0  0  0  0  0  0  0  0  0
  -11.0900   15.1170    3.8180 N   0  0  0  0  0  0  0  0  0  0  0  0
  -10.4720   14.5750    5.0380 C   0  0  2  0  0  0  0  0  0  0  0  0
  -11.5550   14.4440    6.0680 C   0  0  0  0  0  0  0  0  0  0  0  0
  -12.3490   15.3410    6.2570 O   0  0  0  0  0  0  0  0  0  0  0  0
   -9.4400   15.6080    5.4910 C   0  0  0  0  0  0  0  0  0  0  0  0
   -8.6900   15.3110    6.7800 C   0  0  0  0  0  0  0  0  0  0  0  0
   -9.6250   15.6050    7.9480 C   0  0  0  0  0  0  0  0  0  0  0  0
  -10.4300   16.6800    7.9070 O   0  5  0  0  0  0  0  0  0  0  0  0
   -9.6930   14.8490    8.9300 O   0  0  0  0  0  0  0  0  0  0  0  0
  -11.6030   13.3200    6.7670 N   0  0  0  0  0  0  0  0  0  0  0  0
  -12.6300   13.0300    7.7250 C   0  0  2  0  0  0  0  0  0  0  0  0
  -12.1960   11.8170    8.5230 C   0  0  0  0  0  0  0  0  0  0  0  0
  -11.1810   11.1770    8.2000 O   0  0  0  0  0  0  0  0  0  0  0  0
  -13.8920   12.7040    6.9190 C   0  0  0  0  0  0  0  0  0  0  0  0
  -13.0060   11.4690    9.5590 N   0  0  0  0  0  0  0  0  0  0  0  0
  -12.7380   10.3980   10.4950 C   0  0  2  0  0  0  0  0  0  0  0  0
  -11.4230   10.7220   11.1380 C   0  0  0  0  0  0  0  0  0  0  0  0
  -10.3000   10.3930   10.5060 O   0  5  0  0  0  0  0  0  0  0  0  0
  -11.3550   11.3270   12.2160 O   0  0  0  0  0  0  0  0  0  0  0  0
  -12.7960    9.0230    9.8110 C   0  0  0  0  0  0  0  0  0  0  0  0
  -13.9820    8.1930   10.3130 C   0  0  0  0  0  0  0  0  0  0  0  0
  -13.8680    6.7050    9.9560 C   0  0  0  0  0  0  0  0  0  0  0  0
  -13.1330    5.9330   11.0390 C   0  0  0  0  0  0  0  0  0  0  0  0
   -3.2745   17.3115   -5.1846 H   0  0  0  0  0  0  0  0  0  0  0  0
   -4.3640   16.4117   -4.3402 H   0  0  0  0  0  0  0  0  0  0  0  0
   -4.2616   18.0344   -4.0834 H   0  0  0  0  0  0  0  0  0  0  0  0
   -5.0237   18.5397   -6.2183 H   0  0  0  0  0  0  0  0  0  0  0  0
   -5.5006   17.1138   -7.8660 H   0  0  0  0  0  0  0  0  0  0  0  0
   -5.8010   15.7345   -6.7551 H   0  0  0  0  0  0  0  0  0  0  0  0
   -3.8224   14.8642   -7.2800 H   0  0  0  0  0  0  0  0  0  0  0  0
   -2.9896   16.3441   -6.6944 H   0  0  0  0  0  0  0  0  0  0  0  0
   -3.7397   17.3053   -9.0725 H   0  0  0  0  0  0  0  0  0  0  0  0
   -3.8032   15.5633   -9.5061 H   0  0  0  0  0  0  0  0  0  0  0  0
   -1.3893   17.1548   -8.7499 H   0  0  0  0  0  0  0  0  0  0  0  0
    0.7798   14.3945   -9.8817 H   0  0  0  0  0  0  0  0  0  0  0  0
    0.6902   15.3975   -8.3942 H   0  0  0  0  0  0  0  0  0  0  0  0
    0.7266   16.1855  -10.0080 H   0  0  0  0  0  0  0  0  0  0  0  0
   -0.9971   13.4786  -10.3656 H   0  0  0  0  0  0  0  0  0  0  0  0
   -2.6467   14.1018  -10.0951 H   0  0  0  0  0  0  0  0  0  0  0  0
   -6.2418   15.6986   -4.2757 H   0  0  0  0  0  0  0  0  0  0  0  0
   -8.7439   17.2552   -3.9709 H   0  0  0  0  0  0  0  0  0  0  0  0
   -8.4881   14.3195   -4.6533 H   0  0  0  0  0  0  0  0  0  0  0  0
  -10.9683   14.2846   -4.8777 H   0  0  0  0  0  0  0  0  0  0  0  0
  -11.0434   15.9569   -4.2263 H   0  0  0  0  0  0  0  0  0  0  0  0
  -10.4440   14.6162   -3.1920 H   0  0  0  0  0  0  0  0  0  0  0  0
   -8.0814   15.8580   -6.5764 H   0  0  0  0  0  0  0  0  0  0  0  0
   -9.7047   16.5800   -6.3108 H   0  0  0  0  0  0  0  0  0  0  0  0
   -9.5557   14.8519   -6.7778 H   0  0  0  0  0  0  0  0  0  0  0  0
   -8.3418   17.9408   -1.9383 H   0  0  0  0  0  0  0  0  0  0  0  0
   -7.4514   16.0831    0.2079 H   0  0  0  0  0  0  0  0  0  0  0  0
   -9.6221   18.2359    0.4438 H   0  0  0  0  0  0  0  0  0  0  0  0
   -8.9485   17.2591    1.7924 H   0  0  0  0  0  0  0  0  0  0  0  0
   -6.8022   18.1641    1.3492 H   0  0  0  0  0  0  0  0  0  0  0  0
   -7.5825   19.1407    0.0592 H   0  0  0  0  0  0  0  0  0  0  0  0
   -6.0662   18.1411   -1.5972 H   0  0  0  0  0  0  0  0  0  0  0  0
   -3.9991   19.3236   -0.8953 H   0  0  0  0  0  0  0  0  0  0  0  0
   -4.6549   19.4490    0.7723 H   0  0  0  0  0  0  0  0  0  0  0  0
   -5.4838   20.2856   -0.5840 H   0  0  0  0  0  0  0  0  0  0  0  0
   -5.5665   16.0060   -0.4664 H   0  0  0  0  0  0  0  0  0  0  0  0
   -4.5875   16.8940    0.7499 H   0  0  0  0  0  0  0  0  0  0  0  0
   -4.0851   16.8856   -0.9747 H   0  0  0  0  0  0  0  0  0  0  0  0
   -9.6247   15.3787    0.2316 H   0  0  0  0  0  0  0  0  0  0  0  0
  -10.6672   16.4967   -0.3790 H   0  0  0  0  0  0  0  0  0  0  0  0
  -11.5443   16.7886    1.8595 H   0  0  0  0  0  0  0  0  0  0  0  0
  -11.8860   14.8575   -0.2757 H   0  0  0  0  0  0  0  0  0  0  0  0
  -13.0934   15.8331    0.6283 H   0  0  0  0  0  0  0  0  0  0  0  0
  -11.2655   12.5997    0.5532 H   0  0  0  0  0  0  0  0  0  0  0  0
  -14.4052   14.9133    2.3512 H   0  0  0  0  0  0  0  0  0  0  0  0
  -12.1180   10.5683    1.6875 H   0  0  0  0  0  0  0  0  0  0  0  0
  -15.1863   12.8864    3.5662 H   0  0  0  0  0  0  0  0  0  0  0  0
  -14.1005   10.6834    3.2017 H   0  0  0  0  0  0  0  0  0  0  0  0
  -12.0165   15.4878    3.8820 H   0  0  0  0  0  0  0  0  0  0  0  0
   -9.9957   13.6016    4.8492 H   0  0  0  0  0  0  0  0  0  0  0  0
   -9.9647   16.5655    5.6249 H   0  0  0  0  0  0  0  0  0  0  0  0
   -8.6946   15.7074    4.6882 H   0  0  0  0  0  0  0  0  0  0  0  0
   -7.7965   15.9491    6.8475 H   0  0  0  0  0  0  0  0  0  0  0  0
   -8.3879   14.2535    6.8009 H   0  0  0  0  0  0  0  0  0  0  0  0
  -10.8862   12.6385    6.6191 H   0  0  0  0  0  0  0  0  0  0  0  0
  -12.8043   13.8867    8.3926 H   0  0  0  0  0  0  0  0  0  0  0  0
  -14.7174   12.4722    7.6081 H   0  0  0  0  0  0  0  0  0  0  0  0
  -13.6997   11.8355    6.2719 H   0  0  0  0  0  0  0  0  0  0  0  0
  -14.1648   13.5703    6.2985 H   0  0  0  0  0  0  0  0  0  0  0  0
  -13.8493   11.9920    9.6831 H   0  0  0  0  0  0  0  0  0  0  0  0
  -13.5133   10.4057   11.2753 H   0  0  0  0  0  0  0  0  0  0  0  0
  -11.8640    8.4788   10.0237 H   0  0  0  0  0  0  0  0  0  0  0  0
  -12.8961    9.1683    8.7253 H   0  0  0  0  0  0  0  0  0  0  0  0
  -14.9036    8.5914    9.8636 H   0  0  0  0  0  0  0  0  0  0  0  0
  -14.0373    8.2873   11.4075 H   0  0  0  0  0  0  0  0  0  0  0  0
  -13.3183    6.6047    9.0085 H   0  0  0  0  0  0  0  0  0  0  0  0
  -14.8783    6.2858    9.8399 H   0  0  0  0  0  0  0  0  0  0  0  0
  -13.0683    4.8726   10.7536 H   0  0  0  0  0  0  0  0  0  0  0  0
  -13.6794    6.0242   11.9893 H   0  0  0  0  0  0  0  0  0  0  0  0
  -12.1193    6.3432   11.1580 H   0  0  0  0  0  0  0  0  0  0  0  0
  1  2  1  0  0  0  0
  1 60  1  0  0  0  0
  1 61  1  0  0  0  0
  1 62  1  0  0  0  0
  2  3  1  0  0  0  0
  2 10  1  0  0  0  0
  2 63  1  6  0  0  0
  3  4  1  0  0  0  0
  3 64  1  0  0  0  0
  3 65  1  0  0  0  0
  4  5  1  0  0  0  0
  4 66  1  0  0  0  0
  4 67  1  0  0  0  0
  5  6  1  0  0  0  0
  5 68  1  0  0  0  0
  5 69  1  0  0  0  0
  6 70  1  0  0  0  0
  7  6  1  1  0  0  0
  7  8  1  0  0  0  0
  7  9  1  0  0  0  0
  8 71  1  0  0  0  0
  8 72  1  0  0  0  0
  8 73  1  0  0  0  0
  9 74  1  0  0  0  0
  9 75  1  0  0  0  0
 10 11  2  0  0  0  0
 10 12  1  0  0  0  0
 12 13  1  0  0  0  0
 12 76  1  0  0  0  0
 13 14  1  0  0  0  0
 13 16  1  0  0  0  0
 13 77  1  6  0  0  0
 14 15  2  0  0  0  0
 14 19  1  0  0  0  0
 16 17  1  0  0  0  0
 16 18  1  0  0  0  0
 16 78  1  0  0  0  0
 17 79  1  0  0  0  0
 17 80  1  0  0  0  0
 17 81  1  0  0  0  0
 18 82  1  0  0  0  0
 18 83  1  0  0  0  0
 18 84  1  0  0  0  0
 19 20  1  0  0  0  0
 19 85  1  0  0  0  0
 20 21  1  0  0  0  0
 20 22  1  0  0  0  0
 20 86  1  1  0  0  0
 21 26  1  0  0  0  0
 21 87  1  0  0  0  0
 21 88  1  0  0  0  0
 22 23  1  0  0  0  0
 22 89  1  0  0  0  0
 22 90  1  0  0  0  0
 23 24  1  0  0  0  0
 23 25  1  0  0  0  0
 23 91  1  0  0  0  0
 24 92  1  0  0  0  0
 24 93  1  0  0  0  0
 24 94  1  0  0  0  0
 25 95  1  0  0  0  0
 25 96  1  0  0  0  0
 25 97  1  0  0  0  0
 26 27  1  0  0  0  0
 26 98  1  0  0  0  0
 26 99  1  0  0  0  0
 27 28  1  0  0  0  0
 27 30  1  0  0  0  0
 27100  1  1  0  0  0
 28 29  2  0  0  0  0
 28 37  1  0  0  0  0
 30 31  1  0  0  0  0
 30101  1  0  0  0  0
 30102  1  0  0  0  0
 31 32  2  0  0  0  0
 31 33  1  0  0  0  0
 32 34  1  0  0  0  0
 32103  1  0  0  0  0
 33 35  2  0  0  0  0
 33104  1  0  0  0  0
 34 36  2  0  0  0  0
 34105  1  0  0  0  0
 35 36  1  0  0  0  0
 35106  1  0  0  0  0
 36107  1  0  0  0  0
 37 38  1  0  0  0  0
 37108  1  0  0  0  0
 38 39  1  0  0  0  0
 38 41  1  0  0  0  0
 38109  1  6  0  0  0
 39 40  2  0  0  0  0
 39 46  1  0  0  0  0
 41 42  1  0  0  0  0
 41110  1  0  0  0  0
 41111  1  0  0  0  0
 42 43  1  0  0  0  0
 42112  1  0  0  0  0
 42113  1  0  0  0  0
 43 44  1  0  0  0  0
 43 45  2  0  0  0  0
 46 47  1  0  0  0  0
 46114  1  0  0  0  0
 47 48  1  0  0  0  0
 47 50  1  0  0  0  0
 47115  1  1  0  0  0
 48 49  2  0  0  0  0
 48 51  1  0  0  0  0
 50116  1  0  0  0  0
 50117  1  0  0  0  0
 50118  1  0  0  0  0
 51 52  1  0  0  0  0
 51119  1  0  0  0  0
 52 53  1  0  0  0  0
 52 56  1  0  0  0  0
 52120  1  1  0  0  0
 53 54  1  0  0  0  0
 53 55  2  0  0  0  0
 56 57  1  0  0  0  0
 56121  1  0  0  0  0
 56122  1  0  0  0  0
 57 58  1  0  0  0  0
 57123  1  0  0  0  0
 57124  1  0  0  0  0
 58 59  1  0  0  0  0
 58125  1  0  0  0  0
 58126  1  0  0  0  0
 59127  1  0  0  0  0
 59128  1  0  0  0  0
 59129  1  0  0  0  0
M  CHG  4   1   1  26   1  44  -1  54  -1
M  END
