4h1m_ligand
 OpenBabel08222323353D

 67 70  0  0  0  0  0  0  0  0999 V2000
   -7.6650    0.4220   18.0770 C   0  0  0  0  0  0  0  0  0  0  0  0
    1.4650   -5.5380   17.8870 C   0  0  0  0  0  0  0  0  0  0  0  0
    1.5140   -8.0420   17.6230 C   0  0  0  0  0  0  0  0  0  0  0  0
   -7.0130    2.6060    9.0150 C   0  0  0  0  0  0  0  0  0  0  0  0
   -4.9140    1.6070    8.2010 C   0  0  0  0  0  0  0  0  0  0  0  0
   -4.8720    3.4050    9.9310 C   0  0  0  0  0  0  0  0  0  0  0  0
   -3.2640   -6.9730   10.4550 C   0  0  0  0  0  0  0  0  0  0  0  0
   -2.3840   -7.4880   11.3770 C   0  0  0  0  0  0  0  0  0  0  0  0
   -4.0580   -5.8630   10.7630 C   0  0  0  0  0  0  0  0  0  0  0  0
   -6.0170   -0.1210   16.2730 C   0  0  0  0  0  0  0  0  0  0  0  0
   -8.1360    0.8760   15.6480 C   0  0  0  0  0  0  0  0  0  0  0  0
   -5.6310   -0.1660   14.9410 C   0  0  0  0  0  0  0  0  0  0  0  0
   -7.7580    0.8180   14.3170 C   0  0  0  0  0  0  0  0  0  0  0  0
   -1.5180   -7.1850   13.8080 C   0  0  0  0  0  0  0  0  0  0  0  0
   -5.3900   -0.1930   10.5990 C   0  0  0  0  0  0  0  0  0  0  0  0
   -7.2640    0.3940   16.6210 C   0  0  0  0  0  0  0  0  0  0  0  0
   -6.5010    0.3030   13.9580 C   0  0  0  0  0  0  0  0  0  0  0  0
   -2.2870   -6.9030   12.6550 C   0  0  0  0  0  0  0  0  0  0  0  0
   -3.9630   -5.2630   12.0160 C   0  0  0  0  0  0  0  0  0  0  0  0
   -1.8360   -6.2690   14.7570 C   0  0  0  0  0  0  0  0  0  0  0  0
   -5.7190    1.1650   10.5890 C   0  0  0  0  0  0  0  0  0  0  0  0
   -5.6200   -0.6860   11.8530 C   0  0  0  0  0  0  0  0  0  0  0  0
   -3.0850   -5.7880   12.9720 C   0  0  0  0  0  0  0  0  0  0  0  0
    0.6380   -6.7910   17.5970 C   0  0  0  0  0  0  0  0  0  0  0  0
   -1.2620   -6.1940   16.0970 C   0  0  0  0  0  0  0  0  0  0  0  0
   -4.7090   -2.9470   11.7730 C   0  0  0  0  0  0  0  0  0  0  0  0
   -5.6180    2.1610    9.4430 C   0  0  0  0  0  0  0  0  0  0  0  0
   -2.7990   -5.4200   14.2620 N   0  0  0  0  0  0  0  0  0  0  0  0
   -6.1220    1.4620   11.7920 N   0  0  0  0  0  0  0  0  0  0  0  0
   -4.7250   -4.1530   12.3950 N   0  0  0  0  0  0  0  0  0  0  0  0
   -5.4800   -1.9940   12.3210 N   0  0  0  0  0  0  0  0  0  0  0  0
   -0.0410   -6.7470   16.2990 N   0  0  0  0  0  0  0  0  0  0  0  0
   -6.1050    0.3320   12.6040 N   0  0  0  0  0  0  0  0  0  0  0  0
   -1.8650   -5.5980   16.9800 O   0  0  0  0  0  0  0  0  0  0  0  0
   -4.0460   -2.7260   10.7650 O   0  0  0  0  0  0  0  0  0  0  0  0
   -6.8528    0.0030   18.6891 H   0  0  0  0  0  0  0  0  0  0  0  0
   -8.5767   -0.1771   18.2178 H   0  0  0  0  0  0  0  0  0  0  0  0
   -7.8575    1.4605   18.3844 H   0  0  0  0  0  0  0  0  0  0  0  0
    1.9457   -5.6357   18.8716 H   0  0  0  0  0  0  0  0  0  0  0  0
    0.8074   -4.6562   17.8859 H   0  0  0  0  0  0  0  0  0  0  0  0
    2.2369   -5.4207   17.1122 H   0  0  0  0  0  0  0  0  0  0  0  0
    0.8957   -8.9270   17.4118 H   0  0  0  0  0  0  0  0  0  0  0  0
    1.9757   -8.1458   18.6160 H   0  0  0  0  0  0  0  0  0  0  0  0
    2.3013   -7.9543   16.8599 H   0  0  0  0  0  0  0  0  0  0  0  0
   -6.9304    3.3253    8.1868 H   0  0  0  0  0  0  0  0  0  0  0  0
   -7.5228    3.0827    9.8652 H   0  0  0  0  0  0  0  0  0  0  0  0
   -7.5917    1.7309    8.6843 H   0  0  0  0  0  0  0  0  0  0  0  0
   -3.9009    1.2747    8.4714 H   0  0  0  0  0  0  0  0  0  0  0  0
   -4.8495    2.3934    7.4346 H   0  0  0  0  0  0  0  0  0  0  0  0
   -5.4858    0.7549    7.8048 H   0  0  0  0  0  0  0  0  0  0  0  0
   -5.3740    3.8070   10.8234 H   0  0  0  0  0  0  0  0  0  0  0  0
   -4.8702    4.1664    9.1372 H   0  0  0  0  0  0  0  0  0  0  0  0
   -3.8357    3.1357   10.1833 H   0  0  0  0  0  0  0  0  0  0  0  0
   -3.3438   -7.4329    9.4766 H   0  0  0  0  0  0  0  0  0  0  0  0
   -1.7666   -8.3416   11.1215 H   0  0  0  0  0  0  0  0  0  0  0  0
   -4.7480   -5.4696   10.0253 H   0  0  0  0  0  0  0  0  0  0  0  0
   -5.3479   -0.4868   17.0434 H   0  0  0  0  0  0  0  0  0  0  0  0
   -9.0974    1.2909   15.9286 H   0  0  0  0  0  0  0  0  0  0  0  0
   -4.6602   -0.5629   14.6669 H   0  0  0  0  0  0  0  0  0  0  0  0
   -8.4354    1.1717   13.5482 H   0  0  0  0  0  0  0  0  0  0  0  0
   -0.7976   -7.9946   13.9152 H   0  0  0  0  0  0  0  0  0  0  0  0
   -5.0137   -0.7627    9.7506 H   0  0  0  0  0  0  0  0  0  0  0  0
   -0.1257   -6.8772   18.3839 H   0  0  0  0  0  0  0  0  0  0  0  0
   -3.2326   -4.6388   14.7744 H   0  0  0  0  0  0  0  0  0  0  0  0
   -5.3284   -4.2561   13.1857 H   0  0  0  0  0  0  0  0  0  0  0  0
   -6.0006   -2.2434   13.1375 H   0  0  0  0  0  0  0  0  0  0  0  0
    0.4261   -7.1506   15.5123 H   0  0  0  0  0  0  0  0  0  0  0  0
  1 36  1  0  0  0  0
  1 37  1  0  0  0  0
  1 38  1  0  0  0  0
  2 39  1  0  0  0  0
  2 40  1  0  0  0  0
  2 41  1  0  0  0  0
  3 42  1  0  0  0  0
  3 43  1  0  0  0  0
  3 44  1  0  0  0  0
  4 45  1  0  0  0  0
  4 46  1  0  0  0  0
  4 47  1  0  0  0  0
  5 48  1  0  0  0  0
  5 49  1  0  0  0  0
  5 50  1  0  0  0  0
  6 51  1  0  0  0  0
  6 52  1  0  0  0  0
  6 53  1  0  0  0  0
  7  8  2  0  0  0  0
  7 54  1  0  0  0  0
  8 55  1  0  0  0  0
  9  7  1  0  0  0  0
  9 56  1  0  0  0  0
 10 16  1  0  0  0  0
 10 57  1  0  0  0  0
 11 16  2  0  0  0  0
 11 58  1  0  0  0  0
 12 10  2  0  0  0  0
 12 59  1  0  0  0  0
 13 11  1  0  0  0  0
 13 60  1  0  0  0  0
 14 61  1  0  0  0  0
 15 21  1  0  0  0  0
 15 62  1  0  0  0  0
 16  1  1  0  0  0  0
 17 12  1  0  0  0  0
 17 13  2  0  0  0  0
 18  8  1  0  0  0  0
 18 14  1  0  0  0  0
 19  9  2  0  0  0  0
 19 23  1  0  0  0  0
 20 14  2  0  0  0  0
 20 25  1  0  0  0  0
 21 27  1  0  0  0  0
 21 29  2  0  0  0  0
 22 15  2  0  0  0  0
 22 33  1  0  0  0  0
 23 18  2  0  0  0  0
 23 28  1  0  0  0  0
 24  2  1  0  0  0  0
 24  3  1  0  0  0  0
 24 63  1  0  0  0  0
 25 32  1  0  0  0  0
 25 34  2  0  0  0  0
 26 30  1  0  0  0  0
 26 31  1  0  0  0  0
 26 35  2  0  0  0  0
 27  4  1  0  0  0  0
 27  5  1  0  0  0  0
 27  6  1  0  0  0  0
 28 20  1  0  0  0  0
 28 64  1  0  0  0  0
 29 33  1  0  0  0  0
 30 19  1  0  0  0  0
 30 65  1  0  0  0  0
 31 22  1  0  0  0  0
 31 66  1  0  0  0  0
 32 24  1  0  0  0  0
 32 67  1  0  0  0  0
 33 17  1  0  0  0  0
M  END
