4h4d_ligand
 OpenBabel08222323353D

 26 25  0  0  0  0  0  0  0  0999 V2000
  -25.8170    1.0630  -18.5820 O   0  0  0  0  0  1  0  0  0  0  0  0
  -26.1890    0.8560  -17.1130 P   0  0  0  0  0  0  0  0  0  0  0  0
  -27.4030    1.7270  -16.7010 O   0  0  0  0  0  1  0  0  0  0  0  0
  -25.0090    0.8920  -16.1150 O   0  0  0  0  0  0  0  0  0  0  0  0
  -26.7750   -0.6190  -17.0720 O   0  0  0  0  0  0  0  0  0  0  0  0
  -26.3140   -2.0800  -16.7740 P   0  0  1  0  0  0  0  0  0  0  0  0
  -27.3730   -3.0020  -17.2600 O   0  0  0  0  0  1  0  0  0  0  0  0
  -24.9240   -2.3000  -17.2350 O   0  0  0  0  0  0  0  0  0  0  0  0
  -26.1610   -2.1630  -15.1820 O   0  0  0  0  0  0  0  0  0  0  0  0
  -27.3310   -2.1640  -14.2180 C   0  0  0  0  0  0  0  0  0  0  0  0
  -27.8940   -0.8160  -14.2020 C   0  0  0  0  0  0  0  0  0  0  0  0
  -29.1350   -0.4530  -14.5040 C   0  0  0  0  0  0  0  0  0  0  0  0
  -30.2280   -1.3440  -14.7410 C   0  0  0  0  0  0  0  0  0  0  0  0
  -29.5280    1.0130  -14.3640 C   0  0  0  0  0  0  0  0  0  0  0  0
  -29.8360    1.2310  -12.9420 N   0  3  0  0  0  0  0  0  0  0  0  0
  -26.9859   -2.4379  -13.2101 H   0  0  0  0  0  0  0  0  0  0  0  0
  -28.0921   -2.8839  -14.5532 H   0  0  0  0  0  0  0  0  0  0  0  0
  -27.2168   -0.0154  -13.9081 H   0  0  0  0  0  0  0  0  0  0  0  0
  -31.1330   -0.7617  -14.9688 H   0  0  0  0  0  0  0  0  0  0  0  0
  -30.4025   -1.9569  -13.8444 H   0  0  0  0  0  0  0  0  0  0  0  0
  -29.9894   -1.9988  -15.5921 H   0  0  0  0  0  0  0  0  0  0  0  0
  -30.4122    1.2297  -14.9815 H   0  0  0  0  0  0  0  0  0  0  0  0
  -28.6954    1.6607  -14.6757 H   0  0  0  0  0  0  0  0  0  0  0  0
  -30.1028    2.1926  -12.7996 H   0  0  0  0  0  0  0  0  0  0  0  0
  -29.0215    1.0224  -12.3860 H   0  0  0  0  0  0  0  0  0  0  0  0
  -30.5947    0.6275  -12.6662 H   0  0  0  0  0  0  0  0  0  0  0  0
  1  2  1  0  0  0  0
  2  3  1  0  0  0  0
  2  4  2  0  0  0  0
  2  5  1  0  0  0  0
  5  6  1  0  0  0  0
  6  7  1  6  0  0  0
  6  8  2  0  0  0  0
  6  9  1  0  0  0  0
  9 10  1  0  0  0  0
 10 11  1  0  0  0  0
 10 16  1  0  0  0  0
 10 17  1  0  0  0  0
 11 12  2  0  0  0  0
 11 18  1  0  0  0  0
 12 13  1  0  0  0  0
 12 14  1  0  0  0  0
 13 19  1  0  0  0  0
 13 20  1  0  0  0  0
 13 21  1  0  0  0  0
 14 15  1  0  0  0  0
 14 22  1  0  0  0  0
 14 23  1  0  0  0  0
 15 24  1  0  0  0  0
 15 25  1  0  0  0  0
 15 26  1  0  0  0  0
M  CHG  1  15   1
M  END
