4hbx_ligand
 OpenBabel08222323353D

 37 39  0  0  0  0  0  0  0  0999 V2000
   50.3320    2.2940   21.5860 C   0  0  0  0  0  0  0  0  0  0  0  0
   50.1300    3.4580   22.3570 C   0  0  0  0  0  0  0  0  0  0  0  0
   50.5800    4.6970   21.9600 C   0  0  0  0  0  0  0  0  0  0  0  0
   53.0150    0.4690   24.3790 C   0  0  0  0  0  0  0  0  0  0  0  0
   51.3020    4.7550   20.7690 C   0  0  0  0  0  0  0  0  0  0  0  0
   52.8870    6.1330   19.3740 C   0  0  0  0  0  0  0  0  0  0  0  0
   52.3450   -0.2860   22.2360 C   0  0  0  0  0  0  0  0  0  0  0  0
   53.2710   -0.6420   23.3610 C   0  0  0  0  0  0  0  0  0  0  0  0
   51.5260    0.5500   24.3800 C   0  0  0  0  0  0  0  0  0  0  0  0
   51.9750    5.9960   20.4340 N   0  0  0  0  0  0  0  0  0  0  0  0
   51.1570    0.2970   22.9530 N   0  0  0  0  0  0  0  0  0  0  0  0
   50.9900    2.3900   20.3560 C   0  0  0  0  0  0  0  0  0  0  0  0
   48.8200    1.0770   23.1520 O   0  0  0  0  0  0  0  0  0  0  0  0
   49.8160    0.7520   22.1620 S   0  0  0  0  0  0  0  0  0  0  0  0
   49.8120   -0.1010   21.0900 O   0  0  0  0  0  0  0  0  0  0  0  0
   51.4560    3.6350   19.9530 C   0  0  0  0  0  0  0  0  0  0  0  0
   52.0740    3.9020   18.5960 C   0  0  0  0  0  0  0  0  0  0  0  0
   53.5650    7.1410   19.4030 O   0  0  0  0  0  0  0  0  0  0  0  0
   53.0590    5.0500   18.6020 N   0  0  0  0  0  0  0  0  0  0  0  0
   54.1920    5.0510   17.6010 C   0  0  0  0  0  0  0  0  0  0  0  0
   49.5998    3.3735   23.2987 H   0  0  0  0  0  0  0  0  0  0  0  0
   50.3819    5.5867   22.5467 H   0  0  0  0  0  0  0  0  0  0  0  0
   53.4668    1.4187   24.0566 H   0  0  0  0  0  0  0  0  0  0  0  0
   53.4013    0.1978   25.3726 H   0  0  0  0  0  0  0  0  0  0  0  0
   52.0607   -1.1786   21.6594 H   0  0  0  0  0  0  0  0  0  0  0  0
   52.8043    0.4539   21.5639 H   0  0  0  0  0  0  0  0  0  0  0  0
   53.0229   -1.6281   23.7806 H   0  0  0  0  0  0  0  0  0  0  0  0
   54.3190   -0.6388   23.0269 H   0  0  0  0  0  0  0  0  0  0  0  0
   51.1874    1.5458   24.7022 H   0  0  0  0  0  0  0  0  0  0  0  0
   51.0918   -0.2160   25.0393 H   0  0  0  0  0  0  0  0  0  0  0  0
   51.7778    6.8026   20.9913 H   0  0  0  0  0  0  0  0  0  0  0  0
   51.1329    1.5148   19.7325 H   0  0  0  0  0  0  0  0  0  0  0  0
   51.2679    4.1375   17.8856 H   0  0  0  0  0  0  0  0  0  0  0  0
   52.5991    2.9933   18.2667 H   0  0  0  0  0  0  0  0  0  0  0  0
   54.8074    5.9514   17.7447 H   0  0  0  0  0  0  0  0  0  0  0  0
   53.7802    5.0473   16.5810 H   0  0  0  0  0  0  0  0  0  0  0  0
   54.8129    4.1551   17.7490 H   0  0  0  0  0  0  0  0  0  0  0  0
  1  2  2  0  0  0  0
  1 12  1  0  0  0  0
  2  3  1  0  0  0  0
  2 21  1  0  0  0  0
  3  5  2  0  0  0  0
  3 22  1  0  0  0  0
  4  8  1  0  0  0  0
  4 23  1  0  0  0  0
  4 24  1  0  0  0  0
  5 10  1  0  0  0  0
  5 16  1  0  0  0  0
  6 18  2  0  0  0  0
  6 19  1  0  0  0  0
  7  8  1  0  0  0  0
  7 25  1  0  0  0  0
  7 26  1  0  0  0  0
  8 27  1  0  0  0  0
  8 28  1  0  0  0  0
  9  4  1  0  0  0  0
  9 29  1  0  0  0  0
  9 30  1  0  0  0  0
 10  6  1  0  0  0  0
 10 31  1  0  0  0  0
 11  7  1  0  0  0  0
 11  9  1  0  0  0  0
 11 14  1  0  0  0  0
 12 16  2  0  0  0  0
 12 32  1  0  0  0  0
 14  1  1  0  0  0  0
 14 13  2  0  0  0  0
 14 15  2  0  0  0  0
 16 17  1  0  0  0  0
 17 19  1  0  0  0  0
 17 33  1  0  0  0  0
 17 34  1  0  0  0  0
 19 20  1  0  0  0  0
 20 35  1  0  0  0  0
 20 36  1  0  0  0  0
 20 37  1  0  0  0  0
M  END
