4hfz_ligand
 OpenBabel08222323353D

192195  0  0  1  0  0  0  0  0999 V2000
  -11.8500  -13.0370    5.2590 N   0  3  0  0  0  0  0  0  0  0  0  0
  -10.4280  -13.3780    5.6160 C   0  0  2  0  0  0  0  0  0  0  0  0
  -10.2770  -14.9100    5.8720 C   0  0  0  0  0  0  0  0  0  0  0  0
  -10.8150  -15.4350    6.8640 O   0  0  0  0  0  0  0  0  0  0  0  0
   -9.9490  -12.5280    6.8320 C   0  0  0  0  0  0  0  0  0  0  0  0
  -10.8310  -12.5980    8.0890 C   0  0  0  0  0  0  0  0  0  0  0  0
  -10.0750  -12.4040    9.4050 C   0  0  0  0  0  0  0  0  0  0  0  0
   -9.0030  -11.7610    9.3920 O   0  5  0  0  0  0  0  0  0  0  0  0
  -10.5760  -12.8790   10.4630 O   0  0  0  0  0  0  0  0  0  0  0  0
   -9.6100  -15.6370    4.9710 N   0  0  0  0  0  0  0  0  0  0  0  0
   -9.3870  -17.0850    5.2020 C   0  0  2  0  0  0  0  0  0  0  0  0
   -7.9740  -17.3330    5.7190 C   0  0  0  0  0  0  0  0  0  0  0  0
   -7.0680  -16.5320    5.4340 O   0  0  0  0  0  0  0  0  0  0  0  0
   -9.5650  -17.9740    3.9580 C   0  0  2  0  0  0  0  0  0  0  0  0
   -8.5750  -17.6220    2.9800 O   0  0  0  0  0  0  0  0  0  0  0  0
  -10.9640  -17.8550    3.3960 C   0  0  0  0  0  0  0  0  0  0  0  0
   -7.7750  -18.4340    6.4580 N   0  0  0  0  0  0  0  0  0  0  0  0
   -6.4660  -18.7280    7.0020 C   0  0  2  0  0  0  0  0  0  0  0  0
   -5.3910  -18.7950    5.8980 C   0  0  0  0  0  0  0  0  0  0  0  0
   -4.3270  -18.1560    6.0110 O   0  0  0  0  0  0  0  0  0  0  0  0
   -6.4660  -20.0000    7.8350 C   0  0  0  0  0  0  0  0  0  0  0  0
   -5.1070  -20.3580    8.3080 C   0  0  0  0  0  0  0  0  0  0  0  0
   -4.5450  -19.6790    9.3820 C   0  0  0  0  0  0  0  0  0  0  0  0
   -4.3460  -21.2840    7.6160 C   0  0  0  0  0  0  0  0  0  0  0  0
   -3.2740  -19.9690    9.8030 C   0  0  0  0  0  0  0  0  0  0  0  0
   -3.0630  -21.5640    7.9950 C   0  0  0  0  0  0  0  0  0  0  0  0
   -2.5290  -20.8970    9.0990 C   0  0  0  0  0  0  0  0  0  0  0  0
   -5.6890  -19.5410    4.8270 N   0  0  0  0  0  0  0  0  0  0  0  0
   -4.7900  -19.7320    3.6940 C   0  0  2  0  0  0  0  0  0  0  0  0
   -4.3780  -18.4370    3.0380 C   0  0  0  0  0  0  0  0  0  0  0  0
   -3.2030  -18.2720    2.7480 O   0  0  0  0  0  0  0  0  0  0  0  0
   -5.4230  -20.6640    2.6640 C   0  0  0  0  0  0  0  0  0  0  0  0
   -5.7080  -21.9070    3.2900 O   0  0  0  0  0  0  0  0  0  0  0  0
   -5.3100  -17.5450    2.8190 N   0  0  0  0  0  0  0  0  0  0  0  0
   -5.0040  -16.2750    2.2590 C   0  0  2  0  0  0  0  0  0  0  0  0
   -4.1650  -15.4560    3.1560 C   0  0  0  0  0  0  0  0  0  0  0  0
   -3.2460  -14.8430    2.7260 O   0  0  0  0  0  0  0  0  0  0  0  0
   -6.2820  -15.5110    2.0180 C   0  0  0  0  0  0  0  0  0  0  0  0
   -7.0480  -16.0240    0.8470 C   0  0  0  0  0  0  0  0  0  0  0  0
   -6.4360  -16.5360   -0.1090 O   0  5  0  0  0  0  0  0  0  0  0  0
   -8.2780  -15.9190    0.8820 O   0  0  0  0  0  0  0  0  0  0  0  0
   -4.5160  -15.4230    4.4130 N   0  0  0  0  0  0  0  0  0  0  0  0
   -3.8580  -14.6200    5.3970 C   0  0  2  0  0  0  0  0  0  0  0  0
   -2.4640  -15.0890    5.7580 C   0  0  0  0  0  0  0  0  0  0  0  0
   -1.6240  -14.3030    6.0890 O   0  0  0  0  0  0  0  0  0  0  0  0
   -4.7150  -14.6660    6.6320 C   0  0  0  0  0  0  0  0  0  0  0  0
   -5.2270  -13.4970    7.4270 C   0  0  0  0  0  0  0  0  0  0  0  0
   -5.2900  -12.2750    6.6670 C   0  0  0  0  0  0  0  0  0  0  0  0
   -6.5380  -13.8840    7.8590 C   0  0  0  0  0  0  0  0  0  0  0  0
   -2.2470  -16.3880    5.7320 N   0  0  0  0  0  0  0  0  0  0  0  0
   -0.9570  -16.9810    6.0080 C   0  0  2  0  0  0  0  0  0  0  0  0
    0.0210  -16.7020    4.9050 C   0  0  0  0  0  0  0  0  0  0  0  0
    1.1680  -16.5250    5.1470 O   0  0  0  0  0  0  0  0  0  0  0  0
   -1.0950  -18.4840    6.2150 C   0  0  0  0  0  0  0  0  0  0  0  0
    0.1200  -19.1430    6.7420 C   0  0  0  0  0  0  0  0  0  0  0  0
    1.0080  -19.8540    6.0510 C   0  0  0  0  0  0  0  0  0  0  0  0
    0.5710  -19.1450    8.0870 C   0  0  0  0  0  0  0  0  0  0  0  0
    1.9950  -20.2950    6.8580 N   0  0  0  0  0  0  0  0  0  0  0  0
    1.7500  -19.8670    8.1240 C   0  0  0  0  0  0  0  0  0  0  0  0
    0.0930  -18.5950    9.2600 C   0  0  0  0  0  0  0  0  0  0  0  0
    2.4470  -20.0690    9.2790 C   0  0  0  0  0  0  0  0  0  0  0  0
    0.7870  -18.7950   10.3890 C   0  0  0  0  0  0  0  0  0  0  0  0
    1.9470  -19.5220   10.4000 C   0  0  0  0  0  0  0  0  0  0  0  0
   -0.4550  -16.6730    3.6830 N   0  0  0  0  0  0  0  0  0  0  0  0
    0.3500  -16.3390    2.5200 C   0  0  2  0  0  0  0  0  0  0  0  0
    0.8740  -14.8840    2.5230 C   0  0  0  0  0  0  0  0  0  0  0  0
    1.7590  -14.5380    1.7460 O   0  0  0  0  0  0  0  0  0  0  0  0
   -0.4150  -16.6770    1.2350 C   0  0  0  0  0  0  0  0  0  0  0  0
   -0.4620  -18.1690    0.9340 C   0  0  0  0  0  0  0  0  0  0  0  0
   -1.4390  -18.5010   -0.2010 C   0  0  0  0  0  0  0  0  0  0  0  0
   -1.7020  -20.0000   -0.3840 C   0  0  0  0  0  0  0  0  0  0  0  0
   -2.2920  -20.6470    0.8320 N   0  3  0  0  0  0  0  0  0  0  0  0
    0.3820  -14.0750    3.4480 N   0  0  0  0  0  0  0  0  0  0  0  0
    0.8060  -12.6870    3.5560 C   0  0  2  0  0  0  0  0  0  0  0  0
    1.9460  -12.4700    4.5370 C   0  0  0  0  0  0  0  0  0  0  0  0
    2.3280  -11.3410    4.7950 O   0  0  0  0  0  0  0  0  0  0  0  0
   -0.3640  -11.8180    3.9930 C   0  0  0  0  0  0  0  0  0  0  0  0
   -1.4360  -11.5470    2.9510 C   0  0  0  0  0  0  0  0  0  0  0  0
   -2.6350  -10.9240    3.6180 C   0  0  0  0  0  0  0  0  0  0  0  0
   -0.8860  -10.6420    1.8800 C   0  0  0  0  0  0  0  0  0  0  0  0
    2.4810  -13.5460    5.0920 N   0  0  0  0  0  0  0  0  0  0  0  0
    3.4820  -13.4340    6.1390 C   0  0  2  0  0  0  0  0  0  0  0  0
    4.8270  -12.9130    5.6460 C   0  0  0  0  0  0  0  0  0  0  0  0
    5.3240  -11.9000    6.1350 O   0  0  0  0  0  0  0  0  0  0  0  0
    3.6610  -14.7720    6.8470 C   0  0  0  0  0  0  0  0  0  0  0  0
    3.1210  -14.8120    8.2720 C   0  0  0  0  0  0  0  0  0  0  0  0
    1.6220  -14.7810    8.2460 C   0  0  0  0  0  0  0  0  0  0  0  0
    3.5970  -16.0370    8.9760 C   0  0  0  0  0  0  0  0  0  0  0  0
    5.4190  -13.6080    4.6850 N   0  0  0  0  0  0  0  0  0  0  0  0
    6.7320  -13.2130    4.1720 C   0  0  2  0  0  0  0  0  0  0  0  0
    6.7400  -11.7720    3.6810 C   0  0  0  0  0  0  0  0  0  0  0  0
    6.5559  -10.8443    4.5135 O   0  5  0  0  0  0  0  0  0  0  0  0
    6.9460  -14.1750    3.0110 C   0  0  0  0  0  0  0  0  0  0  0  0
    6.1760  -15.3830    3.3940 C   0  0  0  0  0  0  0  0  0  0  0  0
    4.9630  -14.8800    4.1010 C   0  0  0  0  0  0  0  0  0  0  0  0
    6.9276  -11.5114    2.4626 O   0  0  0  0  0  0  0  0  0  0  0  0
  -11.9273  -12.0450    5.0977 H   0  0  0  0  0  0  0  0  0  0  0  0
  -12.4596  -13.3027    6.0165 H   0  0  0  0  0  0  0  0  0  0  0  0
  -12.1154  -13.5349    4.4237 H   0  0  0  0  0  0  0  0  0  0  0  0
   -9.7914  -13.1194    4.7570 H   0  0  0  0  0  0  0  0  0  0  0  0
   -9.9025  -11.4769    6.5111 H   0  0  0  0  0  0  0  0  0  0  0  0
   -8.9413  -12.8722    7.1078 H   0  0  0  0  0  0  0  0  0  0  0  0
  -11.3165  -13.5847    8.1138 H   0  0  0  0  0  0  0  0  0  0  0  0
  -11.5984  -11.8135    8.0146 H   0  0  0  0  0  0  0  0  0  0  0  0
   -9.2607  -15.2043    4.1399 H   0  0  0  0  0  0  0  0  0  0  0  0
  -10.1103  -17.4122    5.9634 H   0  0  0  0  0  0  0  0  0  0  0  0
   -9.4049  -19.0216    4.2529 H   0  0  0  0  0  0  0  0  0  0  0  0
   -8.6810  -16.7095    2.7380 H   0  0  0  0  0  0  0  0  0  0  0  0
  -11.0594  -18.5003    2.5103 H   0  0  0  0  0  0  0  0  0  0  0  0
  -11.1570  -16.8103    3.1110 H   0  0  0  0  0  0  0  0  0  0  0  0
  -11.6931  -18.1679    4.1579 H   0  0  0  0  0  0  0  0  0  0  0  0
   -8.5369  -19.0571    6.6348 H   0  0  0  0  0  0  0  0  0  0  0  0
   -6.1986  -17.8975    7.6718 H   0  0  0  0  0  0  0  0  0  0  0  0
   -6.8568  -20.8254    7.2218 H   0  0  0  0  0  0  0  0  0  0  0  0
   -7.1178  -19.8517    8.7086 H   0  0  0  0  0  0  0  0  0  0  0  0
   -5.1176  -18.9125    9.8916 H   0  0  0  0  0  0  0  0  0  0  0  0
   -4.7738  -21.7947    6.7609 H   0  0  0  0  0  0  0  0  0  0  0  0
   -2.8584  -19.4780   10.6755 H   0  0  0  0  0  0  0  0  0  0  0  0
   -2.4715  -22.2900    7.4489 H   0  0  0  0  0  0  0  0  0  0  0  0
   -1.5126  -21.1103    9.4097 H   0  0  0  0  0  0  0  0  0  0  0  0
   -6.5802  -19.9939    4.8022 H   0  0  0  0  0  0  0  0  0  0  0  0
   -3.8778  -20.2145    4.0748 H   0  0  0  0  0  0  0  0  0  0  0  0
   -4.7248  -20.8216    1.8287 H   0  0  0  0  0  0  0  0  0  0  0  0
   -6.3543  -20.2185    2.2844 H   0  0  0  0  0  0  0  0  0  0  0  0
   -4.9016  -22.2874    3.6180 H   0  0  0  0  0  0  0  0  0  0  0  0
   -6.2584  -17.7616    3.0507 H   0  0  0  0  0  0  0  0  0  0  0  0
   -4.4752  -16.4258    1.3063 H   0  0  0  0  0  0  0  0  0  0  0  0
   -6.0320  -14.4548    1.8393 H   0  0  0  0  0  0  0  0  0  0  0  0
   -6.9143  -15.5916    2.9145 H   0  0  0  0  0  0  0  0  0  0  0  0
   -5.2868  -15.9899    4.7037 H   0  0  0  0  0  0  0  0  0  0  0  0
   -3.7911  -13.5872    5.0244 H   0  0  0  0  0  0  0  0  0  0  0  0
   -4.1407  -15.2674    7.3521 H   0  0  0  0  0  0  0  0  0  0  0  0
   -5.6168  -15.2185    6.3296 H   0  0  0  0  0  0  0  0  0  0  0  0
   -4.5757  -13.3323    8.2980 H   0  0  0  0  0  0  0  0  0  0  0  0
   -5.6710  -11.4649    7.3062 H   0  0  0  0  0  0  0  0  0  0  0  0
   -5.9633  -12.4117    5.8080 H   0  0  0  0  0  0  0  0  0  0  0  0
   -4.2838  -12.0151    6.3065 H   0  0  0  0  0  0  0  0  0  0  0  0
   -6.4728  -14.8175    8.4371 H   0  0  0  0  0  0  0  0  0  0  0  0
   -7.1820  -14.0406    6.9811 H   0  0  0  0  0  0  0  0  0  0  0  0
   -6.9651  -13.0909    8.4903 H   0  0  0  0  0  0  0  0  0  0  0  0
   -3.0114  -16.9936    5.5107 H   0  0  0  0  0  0  0  0  0  0  0  0
   -0.5665  -16.5365    6.9353 H   0  0  0  0  0  0  0  0  0  0  0  0
   -1.3427  -18.9432    5.2466 H   0  0  0  0  0  0  0  0  0  0  0  0
   -1.9167  -18.6594    6.9249 H   0  0  0  0  0  0  0  0  0  0  0  0
    0.9463  -20.0523    4.9820 H   0  0  0  0  0  0  0  0  0  0  0  0
    2.8019  -20.8630    6.5628 H   0  0  0  0  0  0  0  0  0  0  0  0
   -0.8226  -18.0148    9.2675 H   0  0  0  0  0  0  0  0  0  0  0  0
    3.3647  -20.6459    9.2920 H   0  0  0  0  0  0  0  0  0  0  0  0
    0.4206  -18.3705   11.3167 H   0  0  0  0  0  0  0  0  0  0  0  0
    2.4754  -19.6598   11.3364 H   0  0  0  0  0  0  0  0  0  0  0  0
   -1.4209  -16.8918    3.5446 H   0  0  0  0  0  0  0  0  0  0  0  0
    1.2370  -16.9889    2.5493 H   0  0  0  0  0  0  0  0  0  0  0  0
    0.0752  -16.1667    0.3928 H   0  0  0  0  0  0  0  0  0  0  0  0
   -1.4467  -16.3091    1.3363 H   0  0  0  0  0  0  0  0  0  0  0  0
   -0.7787  -18.7036    1.8416 H   0  0  0  0  0  0  0  0  0  0  0  0
    0.5449  -18.5037    0.6438 H   0  0  0  0  0  0  0  0  0  0  0  0
   -1.0241  -18.1063   -1.1401 H   0  0  0  0  0  0  0  0  0  0  0  0
   -2.3977  -18.0060    0.0130 H   0  0  0  0  0  0  0  0  0  0  0  0
   -0.7485  -20.4967   -0.6168 H   0  0  0  0  0  0  0  0  0  0  0  0
   -2.3994  -20.1329   -1.2242 H   0  0  0  0  0  0  0  0  0  0  0  0
   -2.4417  -21.6274    0.6517 H   0  0  0  0  0  0  0  0  0  0  0  0
   -3.1720  -20.2078    1.0528 H   0  0  0  0  0  0  0  0  0  0  0  0
   -1.6592  -20.5412    1.6094 H   0  0  0  0  0  0  0  0  0  0  0  0
   -0.2993  -14.4270    4.0898 H   0  0  0  0  0  0  0  0  0  0  0  0
    1.1421  -12.3594    2.5611 H   0  0  0  0  0  0  0  0  0  0  0  0
    0.0425  -10.8475    4.3138 H   0  0  0  0  0  0  0  0  0  0  0  0
   -0.8472  -12.3139    4.8478 H   0  0  0  0  0  0  0  0  0  0  0  0
   -1.7394  -12.4986    2.4901 H   0  0  0  0  0  0  0  0  0  0  0  0
   -3.4123  -10.7270    2.8650 H   0  0  0  0  0  0  0  0  0  0  0  0
   -2.3389   -9.9782    4.0953 H   0  0  0  0  0  0  0  0  0  0  0  0
   -3.0291  -11.6119    4.3805 H   0  0  0  0  0  0  0  0  0  0  0  0
   -0.0134  -11.1188    1.4096 H   0  0  0  0  0  0  0  0  0  0  0  0
   -0.5830   -9.6846    2.3289 H   0  0  0  0  0  0  0  0  0  0  0  0
   -1.6598  -10.4617    1.1192 H   0  0  0  0  0  0  0  0  0  0  0  0
    2.1909  -14.4525    4.7851 H   0  0  0  0  0  0  0  0  0  0  0  0
    3.1027  -12.7105    6.8756 H   0  0  0  0  0  0  0  0  0  0  0  0
    4.7363  -15.0014    6.8808 H   0  0  0  0  0  0  0  0  0  0  0  0
    3.1398  -15.5431    6.2607 H   0  0  0  0  0  0  0  0  0  0  0  0
    3.4862  -13.9279    8.8150 H   0  0  0  0  0  0  0  0  0  0  0  0
    1.2368  -14.8100    9.2759 H   0  0  0  0  0  0  0  0  0  0  0  0
    1.2468  -15.6525    7.6895 H   0  0  0  0  0  0  0  0  0  0  0  0
    1.2828  -13.8577    7.7536 H   0  0  0  0  0  0  0  0  0  0  0  0
    4.6969  -16.0486    8.9887 H   0  0  0  0  0  0  0  0  0  0  0  0
    3.2270  -16.9294    8.4499 H   0  0  0  0  0  0  0  0  0  0  0  0
    3.2184  -16.0369   10.0088 H   0  0  0  0  0  0  0  0  0  0  0  0
    7.5079  -13.3405    4.9412 H   0  0  0  0  0  0  0  0  0  0  0  0
    8.0134  -14.4136    2.8935 H   0  0  0  0  0  0  0  0  0  0  0  0
    6.5605  -13.7474    2.0737 H   0  0  0  0  0  0  0  0  0  0  0  0
    6.7720  -16.0221    4.0620 H   0  0  0  0  0  0  0  0  0  0  0  0
    5.8890  -15.9548    2.4992 H   0  0  0  0  0  0  0  0  0  0  0  0
    4.1348  -14.7161    3.3959 H   0  0  0  0  0  0  0  0  0  0  0  0
    4.6436  -15.5823    4.8851 H   0  0  0  0  0  0  0  0  0  0  0  0
  1  2  1  0  0  0  0
  1 97  1  0  0  0  0
  1 98  1  0  0  0  0
  1 99  1  0  0  0  0
  2  3  1  0  0  0  0
  2  5  1  0  0  0  0
  2100  1  6  0  0  0
  3  4  2  0  0  0  0
  3 10  1  0  0  0  0
  5  6  1  0  0  0  0
  5101  1  0  0  0  0
  5102  1  0  0  0  0
  6  7  1  0  0  0  0
  6103  1  0  0  0  0
  6104  1  0  0  0  0
  7  8  1  0  0  0  0
  7  9  2  0  0  0  0
 10 11  1  0  0  0  0
 10105  1  0  0  0  0
 11 12  1  0  0  0  0
 11 14  1  0  0  0  0
 11106  1  1  0  0  0
 12 13  2  0  0  0  0
 12 17  1  0  0  0  0
 14 15  1  0  0  0  0
 14 16  1  0  0  0  0
 14107  1  1  0  0  0
 15108  1  0  0  0  0
 16109  1  0  0  0  0
 16110  1  0  0  0  0
 16111  1  0  0  0  0
 17 18  1  0  0  0  0
 17112  1  0  0  0  0
 18 19  1  0  0  0  0
 18 21  1  0  0  0  0
 18113  1  1  0  0  0
 19 20  2  0  0  0  0
 19 28  1  0  0  0  0
 21 22  1  0  0  0  0
 21114  1  0  0  0  0
 21115  1  0  0  0  0
 22 23  2  0  0  0  0
 22 24  1  0  0  0  0
 23 25  1  0  0  0  0
 23116  1  0  0  0  0
 24 26  2  0  0  0  0
 24117  1  0  0  0  0
 25 27  2  0  0  0  0
 25118  1  0  0  0  0
 26 27  1  0  0  0  0
 26119  1  0  0  0  0
 27120  1  0  0  0  0
 28 29  1  0  0  0  0
 28121  1  0  0  0  0
 29 30  1  0  0  0  0
 29 32  1  0  0  0  0
 29122  1  1  0  0  0
 30 31  2  0  0  0  0
 30 34  1  0  0  0  0
 32 33  1  0  0  0  0
 32123  1  0  0  0  0
 32124  1  0  0  0  0
 33125  1  0  0  0  0
 34 35  1  0  0  0  0
 34126  1  0  0  0  0
 35 36  1  0  0  0  0
 35 38  1  0  0  0  0
 35127  1  6  0  0  0
 36 37  2  0  0  0  0
 36 42  1  0  0  0  0
 38 39  1  0  0  0  0
 38128  1  0  0  0  0
 38129  1  0  0  0  0
 39 40  1  0  0  0  0
 39 41  2  0  0  0  0
 42 43  1  0  0  0  0
 42130  1  0  0  0  0
 43 44  1  0  0  0  0
 43 46  1  0  0  0  0
 43131  1  6  0  0  0
 44 45  2  0  0  0  0
 44 50  1  0  0  0  0
 46 47  1  0  0  0  0
 46132  1  0  0  0  0
 46133  1  0  0  0  0
 47 48  1  0  0  0  0
 47 49  1  0  0  0  0
 47134  1  0  0  0  0
 48135  1  0  0  0  0
 48136  1  0  0  0  0
 48137  1  0  0  0  0
 49138  1  0  0  0  0
 49139  1  0  0  0  0
 49140  1  0  0  0  0
 50 51  1  0  0  0  0
 50141  1  0  0  0  0
 51 52  1  0  0  0  0
 51 54  1  0  0  0  0
 51142  1  1  0  0  0
 52 53  2  0  0  0  0
 52 64  1  0  0  0  0
 54 55  1  0  0  0  0
 54143  1  0  0  0  0
 54144  1  0  0  0  0
 55 56  2  0  0  0  0
 55 57  1  0  0  0  0
 56 58  1  0  0  0  0
 56145  1  0  0  0  0
 57 59  2  0  0  0  0
 57 60  1  0  0  0  0
 58 59  1  0  0  0  0
 58146  1  0  0  0  0
 59 61  1  0  0  0  0
 60 62  2  0  0  0  0
 60147  1  0  0  0  0
 61 63  2  0  0  0  0
 61148  1  0  0  0  0
 62 63  1  0  0  0  0
 62149  1  0  0  0  0
 63150  1  0  0  0  0
 64 65  1  0  0  0  0
 64151  1  0  0  0  0
 65 66  1  0  0  0  0
 65 68  1  0  0  0  0
 65152  1  1  0  0  0
 66 67  2  0  0  0  0
 66 73  1  0  0  0  0
 68 69  1  0  0  0  0
 68153  1  0  0  0  0
 68154  1  0  0  0  0
 69 70  1  0  0  0  0
 69155  1  0  0  0  0
 69156  1  0  0  0  0
 70 71  1  0  0  0  0
 70157  1  0  0  0  0
 70158  1  0  0  0  0
 71 72  1  0  0  0  0
 71159  1  0  0  0  0
 71160  1  0  0  0  0
 72161  1  0  0  0  0
 72162  1  0  0  0  0
 72163  1  0  0  0  0
 73 74  1  0  0  0  0
 73164  1  0  0  0  0
 74 75  1  0  0  0  0
 74 77  1  0  0  0  0
 74165  1  6  0  0  0
 75 76  2  0  0  0  0
 75 81  1  0  0  0  0
 77 78  1  0  0  0  0
 77166  1  0  0  0  0
 77167  1  0  0  0  0
 78 79  1  0  0  0  0
 78 80  1  0  0  0  0
 78168  1  0  0  0  0
 79169  1  0  0  0  0
 79170  1  0  0  0  0
 79171  1  0  0  0  0
 80172  1  0  0  0  0
 80173  1  0  0  0  0
 80174  1  0  0  0  0
 81 82  1  0  0  0  0
 81175  1  0  0  0  0
 82 83  1  0  0  0  0
 82 85  1  0  0  0  0
 82176  1  1  0  0  0
 83 84  2  0  0  0  0
 83 89  1  0  0  0  0
 85 86  1  0  0  0  0
 85177  1  0  0  0  0
 85178  1  0  0  0  0
 86 87  1  0  0  0  0
 86 88  1  0  0  0  0
 86179  1  0  0  0  0
 87180  1  0  0  0  0
 87181  1  0  0  0  0
 87182  1  0  0  0  0
 88183  1  0  0  0  0
 88184  1  0  0  0  0
 88185  1  0  0  0  0
 89 90  1  0  0  0  0
 89 95  1  0  0  0  0
 90 91  1  0  0  0  0
 90 93  1  0  0  0  0
 90186  1  1  0  0  0
 91 92  1  0  0  0  0
 91 96  2  0  0  0  0
 93 94  1  0  0  0  0
 93187  1  0  0  0  0
 93188  1  0  0  0  0
 94 95  1  0  0  0  0
 94189  1  0  0  0  0
 94190  1  0  0  0  0
 95191  1  0  0  0  0
 95192  1  0  0  0  0
M  CHG  5   1   1   8  -1  40  -1  72   1  92  -1
M  END
