4hgs_ligand
 OpenBabel08222323353D

 45 48  0  0  0  0  0  0  0  0999 V2000
   34.1660  -21.0210   28.1160 C   0  0  0  0  0  0  0  0  0  0  0  0
   35.4500  -20.9500   27.4130 C   0  0  0  0  0  0  0  0  0  0  0  0
   36.1820  -19.6970   27.5760 C   0  0  0  0  0  0  0  0  0  0  0  0
   37.6410  -10.3210   27.9430 C   0  0  0  0  0  0  0  0  0  0  0  0
   38.3890  -12.2310   24.7490 C   0  0  0  0  0  0  0  0  0  0  0  0
   38.5870  -12.5050   23.3940 C   0  0  0  0  0  0  0  0  0  0  0  0
   39.1700  -11.6900   22.4480 C   0  0  0  0  0  0  0  0  0  0  0  0
   38.3700  -13.2660   20.7700 C   0  0  0  0  0  0  0  0  0  0  0  0
   38.1230  -14.3950   21.7660 C   0  0  0  0  0  0  0  0  0  0  0  0
   38.0790  -13.7710   23.1420 C   0  0  0  0  0  0  0  0  0  0  0  0
   37.7630  -13.3850   25.2070 C   0  0  0  0  0  0  0  0  0  0  0  0
   37.3400  -13.6150   26.6320 C   0  0  0  0  0  0  0  0  0  0  0  0
   36.6440  -14.8680   26.9530 C   0  0  0  0  0  0  0  0  0  0  0  0
   36.2970  -15.0460   28.3180 C   0  0  0  0  0  0  0  0  0  0  0  0
   35.5510  -16.2660   28.6430 C   0  0  0  0  0  0  0  0  0  0  0  0
   39.6840  -10.6100   22.7060 O   0  0  0  0  0  0  0  0  0  0  0  0
   39.1570  -12.1270   21.2490 N   0  0  0  0  0  0  0  0  0  0  0  0
   37.5720  -14.3120   24.2540 N   0  0  0  0  0  0  0  0  0  0  0  0
   37.6100  -12.6880   27.7260 C   0  0  0  0  0  0  0  0  0  0  0  0
   37.2010  -13.0030   29.1040 C   0  0  0  0  0  0  0  0  0  0  0  0
   36.5670  -14.1620   29.3620 N   0  0  0  0  0  0  0  0  0  0  0  0
   38.2750  -11.4370   27.6040 O   0  0  0  0  0  0  0  0  0  0  0  0
   36.3100  -17.4170   28.5540 O   0  0  0  0  0  0  0  0  0  0  0  0
   35.6000  -18.6190   28.4090 C   0  0  0  0  0  0  0  0  0  0  0  0
   34.3130  -18.7310   29.1000 C   0  0  0  0  0  0  0  0  0  0  0  0
   33.6150  -19.9420   28.9340 C   0  0  0  0  0  0  0  0  0  0  0  0
   33.4620  -22.1380   28.0060 F   0  0  0  0  0  0  0  0  0  0  0  0
   32.4690  -20.1030   29.4970 F   0  0  0  0  0  0  0  0  0  0  0  0
   35.8296  -21.7700   26.8141 H   0  0  0  0  0  0  0  0  0  0  0  0
   37.1419  -19.5570   27.0922 H   0  0  0  0  0  0  0  0  0  0  0  0
   38.3055   -9.4590   27.7837 H   0  0  0  0  0  0  0  0  0  0  0  0
   37.3528  -10.3707   29.0034 H   0  0  0  0  0  0  0  0  0  0  0  0
   36.7395  -10.2086   27.3228 H   0  0  0  0  0  0  0  0  0  0  0  0
   38.6580  -11.3360   25.3080 H   0  0  0  0  0  0  0  0  0  0  0  0
   37.3897  -12.8829   20.4504 H   0  0  0  0  0  0  0  0  0  0  0  0
   38.8963  -13.6943   19.9043 H   0  0  0  0  0  0  0  0  0  0  0  0
   38.9382  -15.1315   21.7115 H   0  0  0  0  0  0  0  0  0  0  0  0
   37.1659  -14.8903   21.5454 H   0  0  0  0  0  0  0  0  0  0  0  0
   36.4105  -15.6087   26.1967 H   0  0  0  0  0  0  0  0  0  0  0  0
   34.7046  -16.3525   27.9458 H   0  0  0  0  0  0  0  0  0  0  0  0
   35.1713  -16.1782   29.6716 H   0  0  0  0  0  0  0  0  0  0  0  0
   39.7313  -11.6529   20.5816 H   0  0  0  0  0  0  0  0  0  0  0  0
   37.1313  -15.2372   24.3575 H   0  0  0  0  0  0  0  0  0  0  0  0
   37.4092  -12.3053   29.9071 H   0  0  0  0  0  0  0  0  0  0  0  0
   33.9191  -17.9239   29.7070 H   0  0  0  0  0  0  0  0  0  0  0  0
  1 26  1  0  0  0  0
  1 27  1  0  0  0  0
  2  1  2  0  0  0  0
  2 29  1  0  0  0  0
  3  2  1  0  0  0  0
  3 30  1  0  0  0  0
  4 31  1  0  0  0  0
  4 32  1  0  0  0  0
  4 33  1  0  0  0  0
  5  6  1  0  0  0  0
  5 34  1  0  0  0  0
  6  7  1  0  0  0  0
  7 16  2  0  0  0  0
  7 17  1  0  0  0  0
  8 17  1  0  0  0  0
  8 35  1  0  0  0  0
  8 36  1  0  0  0  0
  9  8  1  0  0  0  0
  9 37  1  0  0  0  0
  9 38  1  0  0  0  0
 10  6  2  0  0  0  0
 10  9  1  0  0  0  0
 11  5  2  0  0  0  0
 11 18  1  0  0  0  0
 12 11  1  0  0  0  0
 12 19  1  0  0  0  0
 13 12  2  0  0  0  0
 13 39  1  0  0  0  0
 14 13  1  0  0  0  0
 14 21  2  0  0  0  0
 15 14  1  0  0  0  0
 15 40  1  0  0  0  0
 15 41  1  0  0  0  0
 17 42  1  0  0  0  0
 18 10  1  0  0  0  0
 18 43  1  0  0  0  0
 19 22  1  0  0  0  0
 20 19  2  0  0  0  0
 20 44  1  0  0  0  0
 21 20  1  0  0  0  0
 22  4  1  0  0  0  0
 23 15  1  0  0  0  0
 23 24  1  0  0  0  0
 24  3  2  0  0  0  0
 24 25  1  0  0  0  0
 25 26  2  0  0  0  0
 25 45  1  0  0  0  0
 26 28  1  0  0  0  0
M  END
