4hhz_ligand
 OpenBabel08222323353D

 70 74  0  0  1  0  0  0  0  0999 V2000
  -34.9940   53.5700  -63.3930 O   0  0  0  0  0  0  0  0  0  0  0  0
  -35.4420   53.4960  -64.6590 C   0  0  1  0  0  0  0  0  0  0  0  0
  -35.5980   52.0180  -65.0170 N   0  3  0  0  0  0  0  0  0  0  0  0
  -36.2780   51.8500  -66.2980 C   0  0  0  0  0  0  0  0  0  0  0  0
  -37.6960   52.4870  -66.2440 C   0  0  1  0  0  0  0  0  0  0  0  0
  -37.7110   53.9110  -65.7010 C   0  0  0  0  0  0  0  0  0  0  0  0
  -36.6490   54.3570  -64.9250 C   0  0  0  0  0  0  0  0  0  0  0  0
  -36.6970   55.7420  -64.4020 C   0  0  0  0  0  0  0  0  0  0  0  0
  -37.7860   56.5620  -64.6590 C   0  0  0  0  0  0  0  0  0  0  0  0
  -38.8680   56.0880  -65.4270 C   0  0  0  0  0  0  0  0  0  0  0  0
  -38.8050   54.7110  -65.9500 C   0  0  0  0  0  0  0  0  0  0  0  0
  -39.9360   54.2050  -66.7560 C   0  0  0  0  0  0  0  0  0  0  0  0
  -39.5170   53.3210  -67.8590 C   0  0  0  0  0  0  0  0  0  0  0  0
  -38.5820   52.2510  -67.4910 N   0  3  2  0  0  0  0  0  0  0  0  0
  -39.0830   50.9360  -67.7440 C   0  0  0  0  0  0  0  0  0  0  0  0
  -38.8220   50.3780  -69.1310 C   0  0  0  0  0  0  0  0  0  0  0  0
  -38.8270   49.1730  -69.3270 O   0  0  0  0  0  0  0  0  0  0  0  0
  -38.5750   51.3370  -70.1850 N   0  0  0  0  0  0  0  0  0  0  0  0
  -38.3670   50.9460  -71.5320 C   0  0  1  0  0  0  0  0  0  0  0  0
  -39.0370   51.9220  -72.3390 C   0  0  0  0  0  0  0  0  0  0  0  0
  -36.8840   51.0110  -71.9150 C   0  0  0  0  0  0  0  0  0  0  0  0
  -36.4010   52.0790  -71.9620 O   0  0  0  0  0  0  0  0  0  0  0  0
  -36.1160   49.8080  -72.2550 N   0  0  0  0  0  0  0  0  0  0  0  0
  -34.6900   49.9260  -72.6350 C   0  0  0  0  0  0  0  0  0  0  0  0
  -34.2450   48.9980  -73.7070 C   0  0  0  0  0  0  0  0  0  0  0  0
  -36.6540   48.4790  -72.2260 C   0  0  0  0  0  0  0  0  0  0  0  0
  -36.1850   47.6100  -73.3550 C   0  0  0  0  0  0  0  0  0  0  0  0
  -35.4110   48.3980  -74.3680 C   0  0  2  0  0  0  0  0  0  0  0  0
  -35.0380   47.6390  -75.6660 C   0  0  0  0  0  0  0  0  0  0  0  0
  -33.8140   47.8800  -76.3360 C   0  0  0  0  0  0  0  0  0  0  0  0
  -33.5050   47.2120  -77.5040 C   0  0  0  0  0  0  0  0  0  0  0  0
  -34.4040   46.2870  -78.0230 C   0  0  0  0  0  0  0  0  0  0  0  0
  -34.1300   45.6540  -79.1210 F   0  0  0  0  0  0  0  0  0  0  0  0
  -35.6020   46.0570  -77.3820 C   0  0  0  0  0  0  0  0  0  0  0  0
  -35.9160   46.7500  -76.1900 C   0  0  0  0  0  0  0  0  0  0  0  0
  -34.8893   54.4819  -63.1481 H   0  0  0  0  0  0  0  0  0  0  0  0
  -34.6467   53.8950  -65.3058 H   0  0  0  0  0  0  0  0  0  0  0  0
  -36.1362   51.5611  -64.2975 H   0  0  0  0  0  0  0  0  0  0  0  0
  -34.6845   51.5957  -65.0726 H   0  0  0  0  0  0  0  0  0  0  0  0
  -36.3705   50.7770  -66.5218 H   0  0  0  0  0  0  0  0  0  0  0  0
  -35.6900   52.3400  -67.0880 H   0  0  0  0  0  0  0  0  0  0  0  0
  -38.2064   51.9077  -65.4605 H   0  0  0  0  0  0  0  0  0  0  0  0
  -35.8706   56.1196  -63.8109 H   0  0  0  0  0  0  0  0  0  0  0  0
  -37.8046   57.5725  -64.2670 H   0  0  0  0  0  0  0  0  0  0  0  0
  -39.7254   56.7200  -65.6283 H   0  0  0  0  0  0  0  0  0  0  0  0
  -40.4729   55.0650  -67.1827 H   0  0  0  0  0  0  0  0  0  0  0  0
  -40.6115   53.6422  -66.0950 H   0  0  0  0  0  0  0  0  0  0  0  0
  -39.0346   53.9431  -68.6273 H   0  0  0  0  0  0  0  0  0  0  0  0
  -40.4192   52.8528  -68.2795 H   0  0  0  0  0  0  0  0  0  0  0  0
  -37.8911   52.3347  -68.2202 H   0  0  0  0  0  0  0  0  0  0  0  0
  -40.1718   50.9555  -67.5889 H   0  0  0  0  0  0  0  0  0  0  0  0
  -38.6209   50.2541  -67.0149 H   0  0  0  0  0  0  0  0  0  0  0  0
  -38.5500   52.3101  -69.9558 H   0  0  0  0  0  0  0  0  0  0  0  0
  -38.7651   49.9354  -71.7059 H   0  0  0  0  0  0  0  0  0  0  0  0
  -38.9093   51.6690  -73.4019 H   0  0  0  0  0  0  0  0  0  0  0  0
  -38.6076   52.9159  -72.1446 H   0  0  0  0  0  0  0  0  0  0  0  0
  -40.1085   51.9304  -72.0903 H   0  0  0  0  0  0  0  0  0  0  0  0
  -34.0813   49.7298  -71.7400 H   0  0  0  0  0  0  0  0  0  0  0  0
  -34.5133   50.9553  -72.9802 H   0  0  0  0  0  0  0  0  0  0  0  0
  -33.6266   48.2022  -73.2663 H   0  0  0  0  0  0  0  0  0  0  0  0
  -33.6527   49.5547  -74.4481 H   0  0  0  0  0  0  0  0  0  0  0  0
  -37.7508   48.5479  -72.2743 H   0  0  0  0  0  0  0  0  0  0  0  0
  -36.3577   48.0057  -71.2783 H   0  0  0  0  0  0  0  0  0  0  0  0
  -37.0596   47.1581  -73.8457 H   0  0  0  0  0  0  0  0  0  0  0  0
  -35.5401   46.8158  -72.9510 H   0  0  0  0  0  0  0  0  0  0  0  0
  -36.0636   49.2251  -74.6843 H   0  0  0  0  0  0  0  0  0  0  0  0
  -33.1116   48.5972  -75.9271 H   0  0  0  0  0  0  0  0  0  0  0  0
  -32.5680   47.4073  -78.0129 H   0  0  0  0  0  0  0  0  0  0  0  0
  -36.3060   45.3425  -77.7929 H   0  0  0  0  0  0  0  0  0  0  0  0
  -36.8626   46.5693  -75.6937 H   0  0  0  0  0  0  0  0  0  0  0  0
  1  2  1  0  0  0  0
  1 36  1  0  0  0  0
  2  3  1  0  0  0  0
  2  7  1  0  0  0  0
  2 37  1  6  0  0  0
  3  4  1  0  0  0  0
  3 38  1  0  0  0  0
  3 39  1  0  0  0  0
  4  5  1  0  0  0  0
  4 40  1  0  0  0  0
  4 41  1  0  0  0  0
  5  6  1  0  0  0  0
  5 14  1  0  0  0  0
  5 42  1  1  0  0  0
  6  7  2  0  0  0  0
  6 11  1  0  0  0  0
  7  8  1  0  0  0  0
  8  9  2  0  0  0  0
  8 43  1  0  0  0  0
  9 10  1  0  0  0  0
  9 44  1  0  0  0  0
 10 11  2  0  0  0  0
 10 45  1  0  0  0  0
 11 12  1  0  0  0  0
 12 13  1  0  0  0  0
 12 46  1  0  0  0  0
 12 47  1  0  0  0  0
 13 14  1  0  0  0  0
 13 48  1  0  0  0  0
 13 49  1  0  0  0  0
 14 15  1  0  0  0  0
 14 50  1  6  0  0  0
 15 16  1  0  0  0  0
 15 51  1  0  0  0  0
 15 52  1  0  0  0  0
 16 17  2  0  0  0  0
 16 18  1  0  0  0  0
 18 19  1  0  0  0  0
 18 53  1  0  0  0  0
 19 20  1  0  0  0  0
 19 21  1  0  0  0  0
 19 54  1  6  0  0  0
 20 55  1  0  0  0  0
 20 56  1  0  0  0  0
 20 57  1  0  0  0  0
 21 22  2  0  0  0  0
 21 23  1  0  0  0  0
 23 24  1  0  0  0  0
 23 26  1  0  0  0  0
 24 25  1  0  0  0  0
 24 58  1  0  0  0  0
 24 59  1  0  0  0  0
 25 28  1  0  0  0  0
 25 60  1  0  0  0  0
 25 61  1  0  0  0  0
 26 27  1  0  0  0  0
 26 62  1  0  0  0  0
 26 63  1  0  0  0  0
 27 28  1  0  0  0  0
 27 64  1  0  0  0  0
 27 65  1  0  0  0  0
 28 29  1  0  0  0  0
 28 66  1  6  0  0  0
 29 30  2  0  0  0  0
 29 35  1  0  0  0  0
 30 31  1  0  0  0  0
 30 67  1  0  0  0  0
 31 32  2  0  0  0  0
 31 68  1  0  0  0  0
 32 33  1  0  0  0  0
 32 34  1  0  0  0  0
 34 35  2  0  0  0  0
 34 69  1  0  0  0  0
 35 70  1  0  0  0  0
M  CHG  2   3   1  14   1
M  END
