4hiq_ligand
 OpenBabel08222323353D

 37 38  0  0  0  0  0  0  0  0999 V2000
   -0.5890    0.0640   -0.4960 O   0  5  0  0  0  0  0  0  0  0  0  0
    0.5680   -0.3980   -0.3480 C   0  0  0  0  0  0  0  0  0  0  0  0
    1.0590   -0.4220    0.8060 O   0  0  0  0  0  0  0  0  0  0  0  0
    1.2980   -0.8480   -1.4620 C   0  0  0  0  0  0  0  0  0  0  0  0
    0.7420   -0.6870   -2.7280 C   0  0  0  0  0  0  0  0  0  0  0  0
    2.5640   -1.4490   -1.3600 C   0  0  0  0  0  0  0  0  0  0  0  0
    3.2410   -1.9000   -2.4930 C   0  0  0  0  0  0  0  0  0  0  0  0
    2.6430   -1.7580   -3.7450 C   0  0  0  0  0  0  0  0  0  0  0  0
    3.3390   -2.1880   -4.8290 F   0  0  0  0  0  0  0  0  0  0  0  0
    1.3930   -1.1400   -3.8690 C   0  0  0  0  0  0  0  0  0  0  0  0
    0.8870   -1.0260   -5.1350 O   0  0  0  0  0  0  0  0  0  0  0  0
    0.2230    0.2290   -5.2970 C   0  0  0  0  0  0  0  0  0  0  0  0
    0.2220    0.7450   -6.7170 C   0  0  0  0  0  0  0  0  0  0  0  0
   -0.5960   -0.1460   -7.6320 C   0  0  0  0  0  0  0  0  0  0  0  0
   -0.3070   -0.0440   -9.2050 C   0  0  0  0  0  0  0  0  0  0  0  0
    0.0010   -1.1180   -9.9840 C   0  0  0  0  0  0  0  0  0  0  0  0
    0.1130   -2.6000   -9.5620 C   0  0  0  0  0  0  0  0  0  0  0  0
    0.1870   -0.7170  -11.2410 N   0  0  0  0  0  0  0  0  0  0  0  0
    0.0090    0.6190  -11.2790 N   0  0  0  0  0  0  0  0  0  0  0  0
   -0.2960    1.0370  -10.0450 C   0  0  0  0  0  0  0  0  0  0  0  0
   -0.5750    2.5170   -9.7330 C   0  0  0  0  0  0  0  0  0  0  0  0
   -0.2202   -0.1974   -2.8259 H   0  0  0  0  0  0  0  0  0  0  0  0
    3.0222   -1.5641   -0.3844 H   0  0  0  0  0  0  0  0  0  0  0  0
    4.2204   -2.3555   -2.4016 H   0  0  0  0  0  0  0  0  0  0  0  0
    0.7259    0.9712   -4.6597 H   0  0  0  0  0  0  0  0  0  0  0  0
   -0.8210    0.1127   -4.9706 H   0  0  0  0  0  0  0  0  0  0  0  0
    1.2579    0.7802   -7.0852 H   0  0  0  0  0  0  0  0  0  0  0  0
   -0.2060    1.7582   -6.7288 H   0  0  0  0  0  0  0  0  0  0  0  0
   -1.6560    0.1016   -7.4738 H   0  0  0  0  0  0  0  0  0  0  0  0
   -0.4136   -1.1876   -7.3291 H   0  0  0  0  0  0  0  0  0  0  0  0
    0.3786   -3.2113  -10.4371 H   0  0  0  0  0  0  0  0  0  0  0  0
   -0.8514   -2.9397   -9.1565 H   0  0  0  0  0  0  0  0  0  0  0  0
    0.8916   -2.7042   -8.7920 H   0  0  0  0  0  0  0  0  0  0  0  0
    0.4245   -1.3203  -12.0413 H   0  0  0  0  0  0  0  0  0  0  0  0
   -0.4765    3.1107  -10.6538 H   0  0  0  0  0  0  0  0  0  0  0  0
    0.1476    2.8768   -8.9858 H   0  0  0  0  0  0  0  0  0  0  0  0
   -1.5956    2.6221   -9.3364 H   0  0  0  0  0  0  0  0  0  0  0  0
  1  2  1  0  0  0  0
  2  3  2  0  0  0  0
  2  4  1  0  0  0  0
  4  5  2  0  0  0  0
  4  6  1  0  0  0  0
  5 10  1  0  0  0  0
  5 22  1  0  0  0  0
  6  7  2  0  0  0  0
  6 23  1  0  0  0  0
  7  8  1  0  0  0  0
  7 24  1  0  0  0  0
  8  9  1  0  0  0  0
  8 10  2  0  0  0  0
 10 11  1  0  0  0  0
 11 12  1  0  0  0  0
 12 13  1  0  0  0  0
 12 25  1  0  0  0  0
 12 26  1  0  0  0  0
 13 14  1  0  0  0  0
 13 27  1  0  0  0  0
 13 28  1  0  0  0  0
 14 15  1  0  0  0  0
 14 29  1  0  0  0  0
 14 30  1  0  0  0  0
 15 16  2  0  0  0  0
 15 20  1  0  0  0  0
 16 17  1  0  0  0  0
 16 18  1  0  0  0  0
 17 31  1  0  0  0  0
 17 32  1  0  0  0  0
 17 33  1  0  0  0  0
 18 19  1  0  0  0  0
 18 34  1  0  0  0  0
 19 20  2  0  0  0  0
 20 21  1  0  0  0  0
 21 35  1  0  0  0  0
 21 36  1  0  0  0  0
 21 37  1  0  0  0  0
M  CHG  1   1  -1
M  END
