4his_ligand
 OpenBabel08222323353D

 26 28  0  0  0  0  0  0  0  0999 V2000
   -0.4960    0.7860    0.4060 O   0  5  0  0  0  0  0  0  0  0  0  0
   -2.0390    1.9230   -0.5970 O   0  0  0  0  0  0  0  0  0  0  0  0
    0.2140   -0.4800   -1.8940 C   0  0  0  0  0  0  0  0  0  0  0  0
    0.6470   -1.0250   -3.0910 C   0  0  0  0  0  0  0  0  0  0  0  0
    0.0020    0.0130  -10.4790 C   0  0  0  0  0  0  0  0  0  0  0  0
    0.3700   -1.1200   -8.3480 C   0  0  0  0  0  0  0  0  0  0  0  0
   -0.3830    1.1500   -8.3570 C   0  0  0  0  0  0  0  0  0  0  0  0
   -1.0050    1.1780   -3.1230 C   0  0  0  0  0  0  0  0  0  0  0  0
    0.5550   -0.8230   -5.4960 N   0  0  0  0  0  0  0  0  0  0  0  0
   -0.7240    0.9400   -5.5870 O   0  0  0  0  0  0  0  0  0  0  0  0
   -1.0610    1.1380   -0.6590 C   0  0  0  0  0  0  0  0  0  0  0  0
    0.3620   -1.1180   -9.7460 C   0  0  0  0  0  0  0  0  0  0  0  0
   -0.3610    1.1410   -9.7500 C   0  0  0  0  0  0  0  0  0  0  0  0
   -0.6360    0.6190   -1.8930 C   0  0  0  0  0  0  0  0  0  0  0  0
   -0.0010    0.0220   -7.6450 C   0  0  0  0  0  0  0  0  0  0  0  0
   -0.0340    0.0410   -6.3130 C   0  0  0  0  0  0  0  0  0  0  0  0
    0.2670   -0.4700   -4.2400 C   0  0  0  0  0  0  0  0  0  0  0  0
   -0.5390    0.6130   -4.2570 C   0  0  0  0  0  0  0  0  0  0  0  0
    0.7960   -2.5700  -10.6060 Cl  0  0  0  0  0  0  0  0  0  0  0  0
   -0.7890    2.5770  -10.6070 Cl  0  0  0  0  0  0  0  0  0  0  0  0
    0.5393   -0.9122   -0.9546 H   0  0  0  0  0  0  0  0  0  0  0  0
    1.2907   -1.8972   -3.0926 H   0  0  0  0  0  0  0  0  0  0  0  0
    0.0049    0.0130  -11.5630 H   0  0  0  0  0  0  0  0  0  0  0  0
    0.6660   -2.0135   -7.8103 H   0  0  0  0  0  0  0  0  0  0  0  0
   -0.6997    2.0413   -7.8276 H   0  0  0  0  0  0  0  0  0  0  0  0
   -1.6518    2.0469   -3.1636 H   0  0  0  0  0  0  0  0  0  0  0  0
  3 21  1  0  0  0  0
  4  3  2  0  0  0  0
  4 22  1  0  0  0  0
  5 23  1  0  0  0  0
  6 12  1  0  0  0  0
  6 24  1  0  0  0  0
  7 13  2  0  0  0  0
  7 25  1  0  0  0  0
  8 14  2  0  0  0  0
  8 26  1  0  0  0  0
  9 17  1  0  0  0  0
 10 18  1  0  0  0  0
 11  1  1  0  0  0  0
 11  2  2  0  0  0  0
 12  5  2  0  0  0  0
 12 19  1  0  0  0  0
 13  5  1  0  0  0  0
 13 20  1  0  0  0  0
 14  3  1  0  0  0  0
 14 11  1  0  0  0  0
 15  6  2  0  0  0  0
 15  7  1  0  0  0  0
 15 16  1  0  0  0  0
 16  9  2  0  0  0  0
 16 10  1  0  0  0  0
 17  4  1  0  0  0  0
 17 18  2  0  0  0  0
 18  8  1  0  0  0  0
M  CHG  1   1  -1
M  END
