4hkp_ligand
 OpenBabel08222323353D

 34 35  0  0  1  0  0  0  0  0999 V2000
   26.3290  -12.5370   13.2380 O   0  0  0  0  0  1  0  0  0  0  0  0
   25.4190  -13.2630   14.1680 P   0  0  0  0  0  0  0  0  0  0  0  0
   24.2450  -14.0840   13.5240 O   0  0  0  0  0  1  0  0  0  0  0  0
   26.2040  -14.1830   15.1910 O   0  0  0  0  0  0  0  0  0  0  0  0
   24.7750  -12.1150   15.1250 O   0  0  0  0  0  0  0  0  0  0  0  0
   25.2230  -10.7830   14.7930 C   0  0  0  0  0  0  0  0  0  0  0  0
   24.7940   -9.6930   15.7510 C   0  0  1  0  0  0  0  0  0  0  0  0
   24.1000   -8.7440   14.9560 O   0  0  0  0  0  0  0  0  0  0  0  0
   23.8850  -10.0540   16.9320 C   0  0  1  0  0  0  0  0  0  0  0  0
   24.3900   -9.3020   18.0320 O   0  0  0  0  0  0  0  0  0  0  0  0
   22.4890   -9.5750   16.5340 C   0  0  1  0  0  0  0  0  0  0  0  0
   21.7570   -9.0790   17.6610 O   0  0  0  0  0  0  0  0  0  0  0  0
   22.7880   -8.4550   15.5570 C   0  0  2  0  0  0  0  0  0  0  0  0
   21.8070   -8.3710   14.4400 N   0  0  0  0  0  0  0  0  0  0  0  0
   21.6790   -9.3150   13.3610 C   0  0  0  0  0  0  0  0  0  0  0  0
   22.3790  -10.3280   13.2630 O   0  0  0  0  0  0  0  0  0  0  0  0
   20.7600   -9.0980   12.4040 N   0  0  0  0  0  0  0  0  0  0  0  0
   20.9810   -7.2420   14.4580 C   0  0  0  0  0  0  0  0  0  0  0  0
   20.0560   -7.0580   13.4760 C   0  0  0  0  0  0  0  0  0  0  0  0
   19.9520   -8.0070   12.4530 C   0  0  0  0  0  0  0  0  0  0  0  0
   19.0490   -7.7850   11.4980 N   0  0  0  0  0  0  0  0  0  0  0  0
   19.1540   -6.6300   10.7960 O   0  0  0  0  0  0  0  0  0  0  0  0
   24.8304  -10.5320   13.7966 H   0  0  0  0  0  0  0  0  0  0  0  0
   26.3225  -10.7933   14.7620 H   0  0  0  0  0  0  0  0  0  0  0  0
   25.7052   -9.2396   16.1683 H   0  0  0  0  0  0  0  0  0  0  0  0
   23.8884  -11.1321   17.1502 H   0  0  0  0  0  0  0  0  0  0  0  0
   25.2924   -9.5496   18.1958 H   0  0  0  0  0  0  0  0  0  0  0  0
   21.9175  -10.3821   16.0524 H   0  0  0  0  0  0  0  0  0  0  0  0
   21.6637   -9.7704   18.3058 H   0  0  0  0  0  0  0  0  0  0  0  0
   22.8107   -7.4965   16.0962 H   0  0  0  0  0  0  0  0  0  0  0  0
   20.6703   -9.7465   11.6481 H   0  0  0  0  0  0  0  0  0  0  0  0
   21.0780   -6.5097   15.2582 H   0  0  0  0  0  0  0  0  0  0  0  0
   19.4060   -6.1843   13.4866 H   0  0  0  0  0  0  0  0  0  0  0  0
   19.9966   -6.6024   10.3580 H   0  0  0  0  0  0  0  0  0  0  0  0
  1  2  1  0  0  0  0
  2  3  1  0  0  0  0
  2  4  2  0  0  0  0
  2  5  1  0  0  0  0
  5  6  1  0  0  0  0
  6  7  1  0  0  0  0
  6 23  1  0  0  0  0
  6 24  1  0  0  0  0
  7  8  1  0  0  0  0
  7  9  1  0  0  0  0
  7 25  1  1  0  0  0
  8 13  1  0  0  0  0
  9 10  1  0  0  0  0
  9 11  1  0  0  0  0
  9 26  1  1  0  0  0
 10 27  1  0  0  0  0
 11 12  1  0  0  0  0
 11 13  1  0  0  0  0
 11 28  1  6  0  0  0
 12 29  1  0  0  0  0
 13 14  1  0  0  0  0
 13 30  1  1  0  0  0
 14 15  1  0  0  0  0
 14 18  1  0  0  0  0
 15 16  2  0  0  0  0
 15 17  1  0  0  0  0
 17 20  1  0  0  0  0
 17 31  1  0  0  0  0
 18 19  2  0  0  0  0
 18 32  1  0  0  0  0
 19 20  1  0  0  0  0
 19 33  1  0  0  0  0
 20 21  2  0  0  0  0
 21 22  1  0  0  0  0
 22 34  1  0  0  0  0
M  END
