4hld_ligand
 OpenBabel08222323353D

 55 58  0  0  1  0  0  0  0  0999 V2000
   12.3470   -3.3710    0.9020 C   0  0  0  0  0  0  0  0  0  0  0  0
   11.8130   -2.0080    0.6980 C   0  0  0  0  0  0  0  0  0  0  0  0
   11.4020   -1.2570    1.7220 C   0  0  0  0  0  0  0  0  0  0  0  0
   10.8930    0.0130    1.5930 N   0  0  0  0  0  0  0  0  0  0  0  0
   10.7990    0.6400    0.3680 C   0  0  0  0  0  0  0  0  0  0  0  0
   10.3940    1.7850    0.2330 O   0  0  0  0  0  0  0  0  0  0  0  0
   11.1950   -0.1280   -0.7020 N   0  0  0  0  0  0  0  0  0  0  0  0
   11.6940   -1.4200   -0.6630 C   0  0  0  0  0  0  0  0  0  0  0  0
   12.0260   -2.0420   -1.6690 O   0  0  0  0  0  0  0  0  0  0  0  0
   10.4230    0.7370    2.7410 C   0  0  1  0  0  0  0  0  0  0  0  0
    9.4230   -0.0370    3.5930 C   0  0  0  0  0  0  0  0  0  0  0  0
    8.9300    0.7710    4.7820 C   0  0  0  0  0  0  0  0  0  0  0  0
   10.0970    1.3670    5.5480 C   0  0  0  0  0  0  0  0  0  0  0  0
   10.9310    2.1550    4.5890 N   0  0  0  0  0  0  0  0  0  0  0  0
   11.5610    1.3030    3.5450 C   0  0  0  0  0  0  0  0  0  0  0  0
   11.9330    3.3830    5.2320 S   0  0  0  0  0  0  0  0  0  0  0  0
   11.1750    4.0580    6.2740 O   0  0  0  0  0  0  0  0  0  0  0  0
   12.5560    4.0590    4.1090 O   0  0  0  0  0  0  0  0  0  0  0  0
   13.2160    2.4030    5.9740 C   0  0  0  0  0  0  0  0  0  0  0  0
   13.0310    1.9180    7.2510 C   0  0  0  0  0  0  0  0  0  0  0  0
   14.0170    1.1330    7.8140 C   0  0  0  0  0  0  0  0  0  0  0  0
   15.1540    0.8420    7.0920 C   0  0  0  0  0  0  0  0  0  0  0  0
   15.3290    1.3350    5.8110 C   0  0  0  0  0  0  0  0  0  0  0  0
   14.3640    2.1410    5.2480 C   0  0  0  0  0  0  0  0  0  0  0  0
   16.4990    1.0890    5.1120 O   0  0  0  0  0  0  0  0  0  0  0  0
   16.5550    0.0590    4.1810 C   0  0  0  0  0  0  0  0  0  0  0  0
   15.8180   -1.1100    4.2390 C   0  0  0  0  0  0  0  0  0  0  0  0
   15.9910   -2.0740    3.2620 C   0  0  0  0  0  0  0  0  0  0  0  0
   16.8910   -1.8860    2.2330 C   0  0  0  0  0  0  0  0  0  0  0  0
   17.6210   -0.7180    2.1830 C   0  0  0  0  0  0  0  0  0  0  0  0
   17.4530    0.2450    3.1530 C   0  0  0  0  0  0  0  0  0  0  0  0
   18.7460   -0.3830    0.9210 Cl  0  0  0  0  0  0  0  0  0  0  0  0
   16.1120    0.0490    7.6740 O   0  0  0  0  0  0  0  0  0  0  0  0
   12.3486   -3.6071    1.9764 H   0  0  0  0  0  0  0  0  0  0  0  0
   13.3747   -3.4242    0.5134 H   0  0  0  0  0  0  0  0  0  0  0  0
   11.7151   -4.0961    0.3682 H   0  0  0  0  0  0  0  0  0  0  0  0
   11.4747   -1.6776    2.7239 H   0  0  0  0  0  0  0  0  0  0  0  0
   11.1140    0.2915   -1.6061 H   0  0  0  0  0  0  0  0  0  0  0  0
    9.8695    1.6015    2.3458 H   0  0  0  0  0  0  0  0  0  0  0  0
    9.9080   -0.9519    3.9640 H   0  0  0  0  0  0  0  0  0  0  0  0
    8.5599   -0.3075    2.9671 H   0  0  0  0  0  0  0  0  0  0  0  0
    8.3565    0.1138    5.4521 H   0  0  0  0  0  0  0  0  0  0  0  0
    8.2818    1.5836    4.4223 H   0  0  0  0  0  0  0  0  0  0  0  0
   10.7008    0.5621    5.9925 H   0  0  0  0  0  0  0  0  0  0  0  0
    9.7219    2.0265    6.3444 H   0  0  0  0  0  0  0  0  0  0  0  0
   12.2207    1.9064    2.9041 H   0  0  0  0  0  0  0  0  0  0  0  0
   12.1422    0.4931    4.0101 H   0  0  0  0  0  0  0  0  0  0  0  0
   12.1273    2.1490    7.8033 H   0  0  0  0  0  0  0  0  0  0  0  0
   13.8974    0.7471    8.8199 H   0  0  0  0  0  0  0  0  0  0  0  0
   14.5012    2.5606    4.2580 H   0  0  0  0  0  0  0  0  0  0  0  0
   15.1100   -1.2696    5.0442 H   0  0  0  0  0  0  0  0  0  0  0  0
   15.4118   -2.9893    3.3053 H   0  0  0  0  0  0  0  0  0  0  0  0
   17.0223   -2.6478    1.4731 H   0  0  0  0  0  0  0  0  0  0  0  0
   18.0336    1.1592    3.1071 H   0  0  0  0  0  0  0  0  0  0  0  0
   15.8298   -0.1976    8.5470 H   0  0  0  0  0  0  0  0  0  0  0  0
  1  2  1  0  0  0  0
  1 34  1  0  0  0  0
  1 35  1  0  0  0  0
  1 36  1  0  0  0  0
  2  3  2  0  0  0  0
  2  8  1  0  0  0  0
  3  4  1  0  0  0  0
  3 37  1  0  0  0  0
  4  5  1  0  0  0  0
  4 10  1  0  0  0  0
  5  6  2  0  0  0  0
  5  7  1  0  0  0  0
  7  8  1  0  0  0  0
  7 38  1  0  0  0  0
  8  9  2  0  0  0  0
 10 11  1  0  0  0  0
 10 15  1  0  0  0  0
 10 39  1  6  0  0  0
 11 12  1  0  0  0  0
 11 40  1  0  0  0  0
 11 41  1  0  0  0  0
 12 13  1  0  0  0  0
 12 42  1  0  0  0  0
 12 43  1  0  0  0  0
 13 14  1  0  0  0  0
 13 44  1  0  0  0  0
 13 45  1  0  0  0  0
 14 15  1  0  0  0  0
 14 16  1  0  0  0  0
 15 46  1  0  0  0  0
 15 47  1  0  0  0  0
 16 17  2  0  0  0  0
 16 18  2  0  0  0  0
 16 19  1  0  0  0  0
 19 20  2  0  0  0  0
 19 24  1  0  0  0  0
 20 21  1  0  0  0  0
 20 48  1  0  0  0  0
 21 22  2  0  0  0  0
 21 49  1  0  0  0  0
 22 23  1  0  0  0  0
 22 33  1  0  0  0  0
 23 24  2  0  0  0  0
 23 25  1  0  0  0  0
 24 50  1  0  0  0  0
 25 26  1  0  0  0  0
 26 27  2  0  0  0  0
 26 31  1  0  0  0  0
 27 28  1  0  0  0  0
 27 51  1  0  0  0  0
 28 29  2  0  0  0  0
 28 52  1  0  0  0  0
 29 30  1  0  0  0  0
 29 53  1  0  0  0  0
 30 31  2  0  0  0  0
 30 32  1  0  0  0  0
 31 54  1  0  0  0  0
 33 55  1  0  0  0  0
M  END
