4hlk_ligand
 OpenBabel08222323353D

 30 32  0  0  0  0  0  0  0  0999 V2000
  -39.2680  -10.6260   12.9580 C   0  0  0  0  0  0  0  0  0  0  0  0
  -39.3080  -10.9050   14.3180 C   0  0  0  0  0  0  0  0  0  0  0  0
  -38.4830  -10.3380   15.0630 O   0  0  0  0  0  0  0  0  0  0  0  0
  -40.1750  -11.9270   14.7710 C   0  0  0  0  0  0  0  0  0  0  0  0
  -40.3000  -12.2260   16.1230 C   0  0  0  0  0  0  0  0  0  0  0  0
  -41.1590  -13.2490   16.5520 C   0  0  0  0  0  0  0  0  0  0  0  0
  -41.8940  -14.0100   15.6270 C   0  0  0  0  0  0  0  0  0  0  0  0
  -41.7750  -13.6970   14.2750 C   0  0  0  0  0  0  0  0  0  0  0  0
  -40.9260  -12.6760   13.8610 C   0  0  0  0  0  0  0  0  0  0  0  0
  -40.8450  -12.3810   12.5150 O   0  0  0  0  0  0  0  0  0  0  0  0
  -40.0570  -11.3510   12.0550 C   0  0  0  0  0  0  0  0  0  0  0  0
  -40.1190  -11.1140   10.6550 C   0  0  0  0  0  0  0  0  0  0  0  0
  -39.4090  -10.0940    9.9830 C   0  0  0  0  0  0  0  0  0  0  0  0
  -39.5250   -9.9090    8.6000 C   0  0  0  0  0  0  0  0  0  0  0  0
  -40.3470  -10.7280    7.8240 C   0  0  0  0  0  0  0  0  0  0  0  0
  -40.4720  -10.5690    6.4140 C   0  0  0  0  0  0  0  0  0  0  0  0
  -41.0520  -11.7450    8.4840 C   0  0  0  0  0  0  0  0  0  0  0  0
  -40.9360  -11.9380    9.8660 C   0  0  0  0  0  0  0  0  0  0  0  0
  -38.6163   -9.8352   12.5894 H   0  0  0  0  0  0  0  0  0  0  0  0
  -39.7285  -11.6635   16.8524 H   0  0  0  0  0  0  0  0  0  0  0  0
  -41.2571  -13.4553   17.6117 H   0  0  0  0  0  0  0  0  0  0  0  0
  -42.5362  -14.8187   15.9568 H   0  0  0  0  0  0  0  0  0  0  0  0
  -42.3475  -14.2525   13.5410 H   0  0  0  0  0  0  0  0  0  0  0  0
  -38.7589   -9.4390   10.5517 H   0  0  0  0  0  0  0  0  0  0  0  0
  -38.9650   -9.1134    8.1220 H   0  0  0  0  0  0  0  0  0  0  0  0
  -41.1700  -11.3227    6.0205 H   0  0  0  0  0  0  0  0  0  0  0  0
  -39.4872  -10.6992    5.9416 H   0  0  0  0  0  0  0  0  0  0  0  0
  -40.8554   -9.5624    6.1911 H   0  0  0  0  0  0  0  0  0  0  0  0
  -41.7017  -12.3967    7.9110 H   0  0  0  0  0  0  0  0  0  0  0  0
  -41.4898  -12.7421   10.3370 H   0  0  0  0  0  0  0  0  0  0  0  0
  1  2  1  0  0  0  0
  1 11  2  0  0  0  0
  1 19  1  0  0  0  0
  2  3  2  0  0  0  0
  2  4  1  0  0  0  0
  4  5  2  0  0  0  0
  4  9  1  0  0  0  0
  5  6  1  0  0  0  0
  5 20  1  0  0  0  0
  6  7  2  0  0  0  0
  6 21  1  0  0  0  0
  7  8  1  0  0  0  0
  7 22  1  0  0  0  0
  8  9  2  0  0  0  0
  8 23  1  0  0  0  0
  9 10  1  0  0  0  0
 10 11  1  0  0  0  0
 11 12  1  0  0  0  0
 12 13  2  0  0  0  0
 12 18  1  0  0  0  0
 13 14  1  0  0  0  0
 13 24  1  0  0  0  0
 14 15  2  0  0  0  0
 14 25  1  0  0  0  0
 15 16  1  0  0  0  0
 15 17  1  0  0  0  0
 16 26  1  0  0  0  0
 16 27  1  0  0  0  0
 16 28  1  0  0  0  0
 17 18  2  0  0  0  0
 17 29  1  0  0  0  0
 18 30  1  0  0  0  0
M  END
