4hlw_ligand
 OpenBabel08222323353D

 33 35  0  0  0  0  0  0  0  0999 V2000
   20.0700   16.7180   31.7920 C   0  0  0  0  0  0  0  0  0  0  0  0
   20.8680   16.2350   32.8180 C   0  0  0  0  0  0  0  0  0  0  0  0
   20.8400   14.8750   33.1200 C   0  0  0  0  0  0  0  0  0  0  0  0
   20.0240   13.9970   32.4070 C   0  0  0  0  0  0  0  0  0  0  0  0
   19.2220   14.4850   31.3820 C   0  0  0  0  0  0  0  0  0  0  0  0
   19.2500   15.8460   31.0750 C   0  0  0  0  0  0  0  0  0  0  0  0
   18.4700   16.3530   30.0680 O   0  0  0  0  0  0  0  0  0  0  0  0
   17.8260   15.5260   29.1040 C   0  0  0  0  0  0  0  0  0  0  0  0
   17.3420   16.4560   27.9980 C   0  0  0  0  0  0  0  0  0  0  0  0
   15.5860   16.4150   27.8900 S   0  0  0  0  0  0  0  0  0  0  0  0
   14.8680   18.0200   27.9790 C   0  0  0  0  0  0  0  0  0  0  0  0
   15.2470   18.9460   28.8900 N   0  0  0  0  0  0  0  0  0  0  0  0
   14.4600   20.0280   28.6410 C   0  0  0  0  0  0  0  0  0  0  0  0
   13.8760   18.3960   27.1540 N   0  0  0  0  0  0  0  0  0  0  0  0
   13.5680   19.6630   27.5050 C   0  0  0  0  0  0  0  0  0  0  0  0
   12.6460   20.6030   27.0390 C   0  0  0  0  0  0  0  0  0  0  0  0
   12.5730   21.8600   27.6360 C   0  0  0  0  0  0  0  0  0  0  0  0
   13.4100   22.2020   28.6990 C   0  0  0  0  0  0  0  0  0  0  0  0
   14.3470   21.2990   29.2020 C   0  0  0  0  0  0  0  0  0  0  0  0
   20.0832   17.7738   31.5468 H   0  0  0  0  0  0  0  0  0  0  0  0
   21.5065   16.9079   33.3789 H   0  0  0  0  0  0  0  0  0  0  0  0
   21.4621   14.4935   33.9216 H   0  0  0  0  0  0  0  0  0  0  0  0
   20.0153   12.9408   32.6506 H   0  0  0  0  0  0  0  0  0  0  0  0
   18.5792   13.8130   30.8249 H   0  0  0  0  0  0  0  0  0  0  0  0
   16.9738   15.0014   29.5606 H   0  0  0  0  0  0  0  0  0  0  0  0
   18.5356   14.7895   28.6990 H   0  0  0  0  0  0  0  0  0  0  0  0
   17.7721   16.1332   27.0384 H   0  0  0  0  0  0  0  0  0  0  0  0
   17.6680   17.4831   28.2190 H   0  0  0  0  0  0  0  0  0  0  0  0
   15.9732   18.8523   29.6144 H   0  0  0  0  0  0  0  0  0  0  0  0
   11.9881   20.3550   26.2140 H   0  0  0  0  0  0  0  0  0  0  0  0
   11.8545   22.5838   27.2688 H   0  0  0  0  0  0  0  0  0  0  0  0
   13.3306   23.1880   29.1423 H   0  0  0  0  0  0  0  0  0  0  0  0
   14.9869   21.5857   30.0287 H   0  0  0  0  0  0  0  0  0  0  0  0
  1  2  2  0  0  0  0
  1  6  1  0  0  0  0
  1 20  1  0  0  0  0
  2  3  1  0  0  0  0
  2 21  1  0  0  0  0
  3  4  2  0  0  0  0
  3 22  1  0  0  0  0
  4  5  1  0  0  0  0
  4 23  1  0  0  0  0
  5  6  2  0  0  0  0
  5 24  1  0  0  0  0
  6  7  1  0  0  0  0
  7  8  1  0  0  0  0
  8  9  1  0  0  0  0
  8 25  1  0  0  0  0
  8 26  1  0  0  0  0
  9 10  1  0  0  0  0
  9 27  1  0  0  0  0
  9 28  1  0  0  0  0
 10 11  1  0  0  0  0
 11 12  1  0  0  0  0
 11 14  2  0  0  0  0
 12 13  1  0  0  0  0
 12 29  1  0  0  0  0
 13 15  2  0  0  0  0
 13 19  1  0  0  0  0
 14 15  1  0  0  0  0
 15 16  1  0  0  0  0
 16 17  2  0  0  0  0
 16 30  1  0  0  0  0
 17 18  1  0  0  0  0
 17 31  1  0  0  0  0
 18 19  2  0  0  0  0
 18 32  1  0  0  0  0
 19 33  1  0  0  0  0
M  END
