4hmh_ligand
 OpenBabel08222323353D

 29 31  0  0  0  0  0  0  0  0999 V2000
    1.4690  -11.1140   -9.4960 C   0  0  0  0  0  0  0  0  0  0  0  0
    1.4570  -10.9010   -8.0950 C   0  0  0  0  0  0  0  0  0  0  0  0
    0.3700  -10.3460   -7.4910 O   0  0  0  0  0  0  0  0  0  0  0  0
    2.5530  -11.2260   -7.3060 C   0  0  0  0  0  0  0  0  0  0  0  0
    3.6620  -11.7690   -7.9260 C   0  0  0  0  0  0  0  0  0  0  0  0
    3.6920  -11.9820   -9.3070 C   0  0  0  0  0  0  0  0  0  0  0  0
    2.5950  -11.6580  -10.1080 C   0  0  0  0  0  0  0  0  0  0  0  0
    2.6810  -11.8700  -11.4910 C   0  0  0  0  0  0  0  0  0  0  0  0
    3.9380  -12.0840  -11.9380 O   0  0  0  0  0  0  0  0  0  0  0  0
    4.2240  -12.2130  -13.2450 C   0  0  0  0  0  0  0  0  0  0  0  0
    5.5650  -12.3090  -13.6290 C   0  0  0  0  0  0  0  0  0  0  0  0
    5.8820  -12.4190  -14.9760 C   0  0  0  0  0  0  0  0  0  0  0  0
    7.1800  -12.4750  -15.3690 O   0  0  0  0  0  0  0  0  0  0  0  0
    4.8470  -12.4320  -15.9150 C   0  0  0  0  0  0  0  0  0  0  0  0
    3.5200  -12.3520  -15.5080 C   0  0  0  0  0  0  0  0  0  0  0  0
    3.1860  -12.2620  -14.1560 C   0  0  0  0  0  0  0  0  0  0  0  0
    1.8580  -12.1610  -13.7290 C   0  0  0  0  0  0  0  0  0  0  0  0
    0.8940  -12.2240  -14.5080 O   0  0  0  0  0  0  0  0  0  0  0  0
    1.6200  -11.9370  -12.3830 C   0  0  0  0  0  0  0  0  0  0  0  0
    0.6014  -10.8533  -10.0912 H   0  0  0  0  0  0  0  0  0  0  0  0
    0.2151   -9.4815   -7.8528 H   0  0  0  0  0  0  0  0  0  0  0  0
    2.5387  -11.0585   -6.2351 H   0  0  0  0  0  0  0  0  0  0  0  0
    4.5267  -12.0353   -7.3290 H   0  0  0  0  0  0  0  0  0  0  0  0
    4.5799  -12.4049   -9.7630 H   0  0  0  0  0  0  0  0  0  0  0  0
    6.3500  -12.2976  -12.8816 H   0  0  0  0  0  0  0  0  0  0  0  0
    7.2203  -12.5487  -16.3153 H   0  0  0  0  0  0  0  0  0  0  0  0
    5.0811  -12.5052  -16.9709 H   0  0  0  0  0  0  0  0  0  0  0  0
    2.7323  -12.3597  -16.2527 H   0  0  0  0  0  0  0  0  0  0  0  0
    0.5992  -11.8133  -12.0243 H   0  0  0  0  0  0  0  0  0  0  0  0
  1  2  2  0  0  0  0
  1  7  1  0  0  0  0
  1 20  1  0  0  0  0
  2  3  1  0  0  0  0
  2  4  1  0  0  0  0
  3 21  1  0  0  0  0
  4  5  2  0  0  0  0
  4 22  1  0  0  0  0
  5  6  1  0  0  0  0
  5 23  1  0  0  0  0
  6  7  2  0  0  0  0
  6 24  1  0  0  0  0
  7  8  1  0  0  0  0
  8  9  1  0  0  0  0
  8 19  2  0  0  0  0
  9 10  1  0  0  0  0
 10 11  2  0  0  0  0
 10 16  1  0  0  0  0
 11 12  1  0  0  0  0
 11 25  1  0  0  0  0
 12 13  1  0  0  0  0
 12 14  2  0  0  0  0
 13 26  1  0  0  0  0
 14 15  1  0  0  0  0
 14 27  1  0  0  0  0
 15 16  2  0  0  0  0
 15 28  1  0  0  0  0
 16 17  1  0  0  0  0
 17 18  2  0  0  0  0
 17 19  1  0  0  0  0
 19 29  1  0  0  0  0
M  END
