4hra_ligand
 OpenBabel08222323353D

 84 89  0  0  1  0  0  0  0  0999 V2000
  -17.3800  -59.1930  -16.2860 C   0  0  0  0  0  0  0  0  0  0  0  0
  -18.3200  -61.3090  -16.3170 C   0  0  0  0  0  0  0  0  0  0  0  0
  -17.0800  -61.8530  -16.5780 C   0  0  0  0  0  0  0  0  0  0  0  0
  -15.9920  -61.0070  -16.6930 C   0  0  0  0  0  0  0  0  0  0  0  0
  -18.5070  -63.4480  -16.4770 C   0  0  0  0  0  0  0  0  0  0  0  0
  -23.9420  -62.1630   -7.7480 N   0  0  0  0  0  0  0  0  0  0  0  0
  -23.5250  -63.1030   -6.9020 C   0  0  0  0  0  0  0  0  0  0  0  0
  -22.4130  -63.2060   -6.0610 C   0  0  0  0  0  0  0  0  0  0  0  0
  -22.2400  -64.3430   -5.2700 C   0  0  0  0  0  0  0  0  0  0  0  0
  -23.1790  -65.3780   -5.3130 C   0  0  0  0  0  0  0  0  0  0  0  0
  -23.0000  -66.6330   -4.4380 C   0  0  0  0  0  0  0  0  0  0  0  0
  -21.7610  -66.4630   -3.5540 C   0  0  0  0  0  0  0  0  0  0  0  0
  -24.2330  -66.8210   -3.5480 C   0  0  0  0  0  0  0  0  0  0  0  0
  -22.8450  -67.8650   -5.3360 C   0  0  0  0  0  0  0  0  0  0  0  0
  -24.2920  -65.2640   -6.1510 C   0  0  0  0  0  0  0  0  0  0  0  0
  -24.4640  -64.1300   -6.9440 C   0  0  0  0  0  0  0  0  0  0  0  0
  -25.4070  -63.7690   -7.8140 N   0  0  0  0  0  0  0  0  0  0  0  0
  -25.0900  -62.5690   -8.2900 C   0  0  0  0  0  0  0  0  0  0  0  0
  -25.8960  -61.8050   -9.3210 C   0  0  0  0  0  0  0  0  0  0  0  0
  -25.1640  -61.9050  -10.6580 C   0  0  0  0  0  0  0  0  0  0  0  0
  -25.5060  -63.1920  -11.4130 C   0  0  2  0  0  0  0  0  0  0  0  0
  -24.5150  -64.3100  -11.0840 C   0  0  0  0  0  0  0  0  0  0  0  0
  -24.8910  -63.1220  -12.8090 C   0  0  0  0  0  0  0  0  0  0  0  0
  -24.3080  -64.5230  -12.5920 C   0  0  1  0  0  0  0  0  0  0  0  0
  -22.8670  -64.5380  -12.9530 N   0  3  1  0  0  0  0  0  0  0  0  0
  -22.0480  -65.4510  -12.1090 C   0  0  0  0  0  0  0  0  0  0  0  0
  -22.1890  -66.9310  -12.5110 C   0  0  0  0  0  0  0  0  0  0  0  0
  -20.5800  -64.9860  -12.1060 C   0  0  0  0  0  0  0  0  0  0  0  0
  -22.6480  -64.6910  -14.4110 C   0  0  0  0  0  0  0  0  0  0  0  0
  -22.3400  -63.3150  -15.0200 C   0  0  1  0  0  0  0  0  0  0  0  0
  -20.9250  -63.1280  -14.9500 O   0  0  0  0  0  0  0  0  0  0  0  0
  -22.7110  -63.2500  -16.5090 C   0  0  1  0  0  0  0  0  0  0  0  0
  -23.7410  -62.2780  -16.6950 O   0  0  0  0  0  0  0  0  0  0  0  0
  -21.4420  -62.7500  -17.1820 C   0  0  1  0  0  0  0  0  0  0  0  0
  -21.7570  -61.6900  -18.0980 O   0  0  0  0  0  0  0  0  0  0  0  0
  -20.6340  -62.2110  -16.0040 C   0  0  2  0  0  0  0  0  0  0  0  0
  -19.1810  -62.3150  -16.2630 N   0  0  0  0  0  0  0  0  0  0  0  0
  -17.2230  -63.1660  -16.6690 N   0  0  0  0  0  0  0  0  0  0  0  0
  -18.4420  -59.9800  -16.1780 N   0  0  0  0  0  0  0  0  0  0  0  0
  -16.1750  -59.6850  -16.5410 N   0  0  0  0  0  0  0  0  0  0  0  0
  -14.7850  -61.5070  -16.9390 N   0  0  0  0  0  0  0  0  0  0  0  0
  -17.4996  -58.1227  -16.1630 H   0  0  0  0  0  0  0  0  0  0  0  0
  -18.9417  -64.4464  -16.4918 H   0  0  0  0  0  0  0  0  0  0  0  0
  -21.6855  -62.4033   -6.0232 H   0  0  0  0  0  0  0  0  0  0  0  0
  -21.3756  -64.4237   -4.6209 H   0  0  0  0  0  0  0  0  0  0  0  0
  -21.6314  -67.3584   -2.9283 H   0  0  0  0  0  0  0  0  0  0  0  0
  -21.8886  -65.5807   -2.9096 H   0  0  0  0  0  0  0  0  0  0  0  0
  -20.8731  -66.3280   -4.1891 H   0  0  0  0  0  0  0  0  0  0  0  0
  -25.1255  -66.9435   -4.1792 H   0  0  0  0  0  0  0  0  0  0  0  0
  -24.3581  -65.9384   -2.9035 H   0  0  0  0  0  0  0  0  0  0  0  0
  -24.1007  -67.7161   -2.9224 H   0  0  0  0  0  0  0  0  0  0  0  0
  -21.9619  -67.7406   -5.9799 H   0  0  0  0  0  0  0  0  0  0  0  0
  -23.7423  -67.9776   -5.9622 H   0  0  0  0  0  0  0  0  0  0  0  0
  -22.7195  -68.7612   -4.7106 H   0  0  0  0  0  0  0  0  0  0  0  0
  -25.0254  -66.0615   -6.1846 H   0  0  0  0  0  0  0  0  0  0  0  0
  -26.2361  -64.3228   -8.0723 H   0  0  0  0  0  0  0  0  0  0  0  0
  -25.9831  -60.7504   -9.0207 H   0  0  0  0  0  0  0  0  0  0  0  0
  -26.9002  -62.2448   -9.4111 H   0  0  0  0  0  0  0  0  0  0  0  0
  -24.0803  -61.8823  -10.4705 H   0  0  0  0  0  0  0  0  0  0  0  0
  -25.4465  -61.0437  -11.2812 H   0  0  0  0  0  0  0  0  0  0  0  0
  -26.5739  -63.4474  -11.3478 H   0  0  0  0  0  0  0  0  0  0  0  0
  -24.9581  -65.1701  -10.5606 H   0  0  0  0  0  0  0  0  0  0  0  0
  -23.6161  -63.9760  -10.5450 H   0  0  0  0  0  0  0  0  0  0  0  0
  -24.1363  -62.3313  -12.9326 H   0  0  0  0  0  0  0  0  0  0  0  0
  -25.6257  -63.0584  -13.6252 H   0  0  0  0  0  0  0  0  0  0  0  0
  -24.8551  -65.3624  -13.0459 H   0  0  0  0  0  0  0  0  0  0  0  0
  -22.5306  -63.6135  -12.7338 H   0  0  0  0  0  0  0  0  0  0  0  0
  -22.4221  -65.3650  -11.0782 H   0  0  0  0  0  0  0  0  0  0  0  0
  -21.5624  -67.5510  -11.8530 H   0  0  0  0  0  0  0  0  0  0  0  0
  -21.8648  -67.0601  -13.5542 H   0  0  0  0  0  0  0  0  0  0  0  0
  -23.2404  -67.2391  -12.4129 H   0  0  0  0  0  0  0  0  0  0  0  0
  -19.9816  -65.6650  -11.4808 H   0  0  0  0  0  0  0  0  0  0  0  0
  -20.5195  -63.9653  -11.7004 H   0  0  0  0  0  0  0  0  0  0  0  0
  -20.1902  -64.9956  -13.1346 H   0  0  0  0  0  0  0  0  0  0  0  0
  -23.5533  -65.1061  -14.8779 H   0  0  0  0  0  0  0  0  0  0  0  0
  -21.8004  -65.3697  -14.5870 H   0  0  0  0  0  0  0  0  0  0  0  0
  -22.8716  -62.5298  -14.4624 H   0  0  0  0  0  0  0  0  0  0  0  0
  -23.0228  -64.2312  -16.8964 H   0  0  0  0  0  0  0  0  0  0  0  0
  -23.4289  -61.4284  -16.4064 H   0  0  0  0  0  0  0  0  0  0  0  0
  -20.9104  -63.5590  -17.7043 H   0  0  0  0  0  0  0  0  0  0  0  0
  -22.1632  -60.9738  -17.6242 H   0  0  0  0  0  0  0  0  0  0  0  0
  -20.9184  -61.1778  -15.7559 H   0  0  0  0  0  0  0  0  0  0  0  0
  -13.9744  -60.8773  -17.0247 H   0  0  0  0  0  0  0  0  0  0  0  0
  -14.6604  -62.5241  -17.0439 H   0  0  0  0  0  0  0  0  0  0  0  0
  1 40  1  0  0  0  0
  1 42  1  0  0  0  0
  2  3  2  0  0  0  0
  2 39  1  0  0  0  0
  3  4  1  0  0  0  0
  4 40  2  0  0  0  0
  4 41  1  0  0  0  0
  5 38  2  0  0  0  0
  5 43  1  0  0  0  0
  6  7  1  0  0  0  0
  7  8  2  0  0  0  0
  8  9  1  0  0  0  0
  8 44  1  0  0  0  0
  9 45  1  0  0  0  0
 10  9  2  0  0  0  0
 10 11  1  0  0  0  0
 11 12  1  0  0  0  0
 11 13  1  0  0  0  0
 11 14  1  0  0  0  0
 12 46  1  0  0  0  0
 12 47  1  0  0  0  0
 12 48  1  0  0  0  0
 13 49  1  0  0  0  0
 13 50  1  0  0  0  0
 13 51  1  0  0  0  0
 14 52  1  0  0  0  0
 14 53  1  0  0  0  0
 14 54  1  0  0  0  0
 15 10  1  0  0  0  0
 15 55  1  0  0  0  0
 16  7  1  0  0  0  0
 16 15  2  0  0  0  0
 17 16  1  0  0  0  0
 17 56  1  0  0  0  0
 18  6  2  0  0  0  0
 18 17  1  0  0  0  0
 19 18  1  0  0  0  0
 19 57  1  0  0  0  0
 19 58  1  0  0  0  0
 20 19  1  0  0  0  0
 20 59  1  0  0  0  0
 20 60  1  0  0  0  0
 21 20  1  0  0  0  0
 21 61  1  1  0  0  0
 22 21  1  0  0  0  0
 22 62  1  0  0  0  0
 22 63  1  0  0  0  0
 23 21  1  0  0  0  0
 23 64  1  0  0  0  0
 23 65  1  0  0  0  0
 24 22  1  0  0  0  0
 24 23  1  0  0  0  0
 24 66  1  6  0  0  0
 25 24  1  0  0  0  0
 25 26  1  0  0  0  0
 25 67  1  1  0  0  0
 26 27  1  0  0  0  0
 26 28  1  0  0  0  0
 26 68  1  0  0  0  0
 27 69  1  0  0  0  0
 27 70  1  0  0  0  0
 27 71  1  0  0  0  0
 28 72  1  0  0  0  0
 28 73  1  0  0  0  0
 28 74  1  0  0  0  0
 29 25  1  0  0  0  0
 29 75  1  0  0  0  0
 29 76  1  0  0  0  0
 30 29  1  0  0  0  0
 30 77  1  1  0  0  0
 31 30  1  0  0  0  0
 32 30  1  0  0  0  0
 32 33  1  0  0  0  0
 32 78  1  6  0  0  0
 33 79  1  0  0  0  0
 34 32  1  0  0  0  0
 34 35  1  0  0  0  0
 34 80  1  6  0  0  0
 35 81  1  0  0  0  0
 36 31  1  0  0  0  0
 36 34  1  0  0  0  0
 36 37  1  0  0  0  0
 36 82  1  1  0  0  0
 37  2  1  0  0  0  0
 37  5  1  0  0  0  0
 38  3  1  0  0  0  0
 39  1  2  0  0  0  0
 41 83  1  0  0  0  0
 41 84  1  0  0  0  0
M  CHG  1  25   1
M  END
