4huo_ligand
 OpenBabel08222323353D

 47 49  0  0  1  0  0  0  0  0999 V2000
   10.2230  -25.1850   -6.2510 C   0  0  2  0  0  3  0  0  0  0  0  0
    9.9030  -25.8170   -5.1240 N   0  0  0  0  0  0  0  0  0  0  0  0
   11.9750  -25.7440   -9.1310 O   0  0  0  0  0  0  0  0  0  0  0  0
   11.2920  -25.1490   -8.2610 C   0  0  0  0  0  0  0  0  0  0  0  0
   10.9810  -25.8140   -7.1800 N   0  0  0  0  0  0  0  0  0  0  0  0
   10.9540  -23.7750   -8.4620 C   0  0  0  0  0  0  0  0  0  0  0  0
    9.9580  -23.9010   -6.2960 N   0  0  0  0  0  0  0  0  0  0  0  0
    8.5520  -19.4870   -8.0740 O   0  0  0  0  0  0  0  0  0  0  0  0
   10.0990  -23.1920   -7.4240 C   0  0  0  0  0  0  0  0  0  0  0  0
    9.7310  -21.9070   -7.5150 N   0  0  0  0  0  0  0  0  0  0  0  0
    9.9730  -21.2670   -8.6480 C   0  0  0  0  0  0  0  0  0  0  0  0
   11.2320  -23.1060   -9.5860 N   0  0  0  0  0  0  0  0  0  0  0  0
   10.7990  -21.8550   -9.6690 C   0  0  0  0  0  0  0  0  0  0  0  0
    9.4330  -19.8800   -8.8460 C   0  0  0  0  0  0  0  0  0  0  0  0
    9.7240  -19.2280   -9.9620 N   0  0  0  0  0  0  0  0  0  0  0  0
    9.3090  -17.8400  -10.1430 C   0  0  0  0  0  0  0  0  0  0  0  0
    8.5890  -17.6540  -11.4750 C   0  0  0  0  0  0  0  0  0  0  0  0
    8.3810  -16.4950  -11.7810 O   0  0  0  0  0  0  0  0  0  0  0  0
    8.2710  -18.7730  -12.1610 N   0  0  0  0  0  0  0  0  0  0  0  0
    7.5130  -18.8120  -13.4200 C   0  0  2  0  0  0  0  0  0  0  0  0
    6.0840  -19.1790  -13.0790 C   0  0  0  0  0  0  0  0  0  0  0  0
    5.1650  -19.1800  -13.8930 O   0  5  0  0  0  0  0  0  0  0  0  0
    8.3770  -19.6520  -14.4210 C   0  0  0  0  0  0  0  0  0  0  0  0
    8.3770  -21.1350  -13.9190 C   0  0  0  0  0  0  0  0  0  0  0  0
    7.3480  -22.0300  -14.2370 C   0  0  0  0  0  0  0  0  0  0  0  0
    9.3870  -21.6130  -13.1130 C   0  0  0  0  0  0  0  0  0  0  0  0
    7.3080  -23.3730  -13.8440 C   0  0  0  0  0  0  0  0  0  0  0  0
    9.3370  -22.9400  -12.6630 C   0  0  0  0  0  0  0  0  0  0  0  0
    8.3360  -23.8540  -13.0090 C   0  0  0  0  0  0  0  0  0  0  0  0
    5.7740  -19.4920  -11.8240 O   0  0  0  0  0  0  0  0  0  0  0  0
   10.0870  -26.8260   -5.0293 H   0  0  0  0  0  0  0  0  0  0  0  0
    9.4714  -25.2970   -4.3467 H   0  0  0  0  0  0  0  0  0  0  0  0
   11.2920  -26.7546   -7.0436 H   0  0  0  0  0  0  0  0  0  0  0  0
    9.6331  -23.4256   -5.4420 H   0  0  0  0  0  0  0  0  0  0  0  0
   11.0754  -21.2584  -10.5308 H   0  0  0  0  0  0  0  0  0  0  0  0
   10.2329  -19.6912  -10.6876 H   0  0  0  0  0  0  0  0  0  0  0  0
   10.1982  -17.1929  -10.1214 H   0  0  0  0  0  0  0  0  0  0  0  0
    8.6302  -17.5579   -9.3247 H   0  0  0  0  0  0  0  0  0  0  0  0
    8.5761  -19.6465  -11.7815 H   0  0  0  0  0  0  0  0  0  0  0  0
    7.4665  -17.7966  -13.8404 H   0  0  0  0  0  0  0  0  0  0  0  0
    9.4061  -19.2643  -14.4448 H   0  0  0  0  0  0  0  0  0  0  0  0
    7.9412  -19.5976  -15.4295 H   0  0  0  0  0  0  0  0  0  0  0  0
    6.5221  -21.6555  -14.8309 H   0  0  0  0  0  0  0  0  0  0  0  0
   10.2121  -20.9696  -12.8296 H   0  0  0  0  0  0  0  0  0  0  0  0
    6.5075  -24.0255  -14.1733 H   0  0  0  0  0  0  0  0  0  0  0  0
   10.1266  -23.2804  -12.0030 H   0  0  0  0  0  0  0  0  0  0  0  0
    8.3505  -24.8780  -12.6536 H   0  0  0  0  0  0  0  0  0  0  0  0
  1  2  1  1  0  0  0
  1  5  1  0  0  0  0
  2 31  1  0  0  0  0
  2 32  1  0  0  0  0
  4  3  2  0  0  0  0
  4  5  1  0  0  0  0
  5 33  1  0  0  0  0
  6  4  1  0  0  0  0
  6 12  1  0  0  0  0
  7  1  1  0  0  0  0
  7 34  1  0  0  0  0
  9  6  2  0  0  0  0
  9  7  1  0  0  0  0
 10  9  1  0  0  0  0
 11 10  2  0  0  0  0
 11 13  1  0  0  0  0
 11 14  1  0  0  0  0
 12 13  2  0  0  0  0
 13 35  1  0  0  0  0
 14  8  2  0  0  0  0
 14 15  1  0  0  0  0
 15 16  1  0  0  0  0
 15 36  1  0  0  0  0
 16 17  1  0  0  0  0
 16 37  1  0  0  0  0
 16 38  1  0  0  0  0
 17 18  2  0  0  0  0
 17 19  1  0  0  0  0
 19 20  1  0  0  0  0
 19 39  1  0  0  0  0
 20 21  1  0  0  0  0
 20 23  1  0  0  0  0
 20 40  1  6  0  0  0
 21 22  1  0  0  0  0
 21 30  2  0  0  0  0
 23 24  1  0  0  0  0
 23 41  1  0  0  0  0
 23 42  1  0  0  0  0
 24 25  2  0  0  0  0
 24 26  1  0  0  0  0
 25 27  1  0  0  0  0
 25 43  1  0  0  0  0
 26 28  2  0  0  0  0
 26 44  1  0  0  0  0
 27 29  2  0  0  0  0
 27 45  1  0  0  0  0
 28 29  1  0  0  0  0
 28 46  1  0  0  0  0
 29 47  1  0  0  0  0
M  CHG  1  22  -1
M  END
