4hv3_ligand
 OpenBabel08222323353D

 55 58  0  0  1  0  0  0  0  0999 V2000
  -23.9110    8.5960   -6.3990 C   0  0  2  0  0  3  0  0  0  0  0  0
  -24.3050    7.8790   -5.3000 N   0  0  0  0  0  0  0  0  0  0  0  0
  -21.8480    8.1820   -9.1300 O   0  0  0  0  0  0  0  0  0  0  0  0
  -22.6770    8.6610   -8.3050 C   0  0  0  0  0  0  0  0  0  0  0  0
  -23.0650    7.9420   -7.2440 N   0  0  0  0  0  0  0  0  0  0  0  0
  -23.0880    9.9870   -8.5260 C   0  0  0  0  0  0  0  0  0  0  0  0
  -24.3040    9.8540   -6.4840 N   0  0  0  0  0  0  0  0  0  0  0  0
  -25.5700   14.2960   -8.2110 O   0  0  0  0  0  0  0  0  0  0  0  0
  -23.9840   10.5640   -7.5590 C   0  0  0  0  0  0  0  0  0  0  0  0
  -24.5470   11.7530   -7.7420 N   0  0  0  0  0  0  0  0  0  0  0  0
  -24.2210   12.4840   -8.8460 C   0  0  0  0  0  0  0  0  0  0  0  0
  -22.7240   10.8510   -9.6080 N   0  0  0  0  0  0  0  0  0  0  0  0
  -23.2180   12.0520   -9.7890 C   0  0  0  0  0  0  0  0  0  0  0  0
  -24.9410   13.7600   -9.0920 C   0  0  0  0  0  0  0  0  0  0  0  0
  -25.0360   14.1760  -10.4020 N   0  0  0  0  0  0  0  0  0  0  0  0
  -25.7620   15.3370  -10.7980 C   0  0  2  0  0  0  0  0  0  0  0  0
  -27.2770   15.0800  -10.8580 C   0  0  0  0  0  0  0  0  0  0  0  0
  -27.9960   16.0920  -11.0440 O   0  0  0  0  0  0  0  0  0  0  0  0
  -25.2270   15.8220  -12.1800 C   0  0  0  0  0  0  0  0  0  0  0  0
  -25.6420   14.8600  -13.1670 O   0  0  0  0  0  0  0  0  0  0  0  0
  -27.7870   13.8860  -10.5900 N   0  0  0  0  0  0  0  0  0  0  0  0
  -29.2460   13.7420  -10.5720 C   0  0  2  0  0  0  0  0  0  0  0  0
  -29.4780   12.7090   -9.4960 C   0  0  0  0  0  0  0  0  0  0  0  0
  -30.7460   12.5620   -9.0910 O   0  5  0  0  0  0  0  0  0  0  0  0
  -29.9400   13.3720  -11.9070 C   0  0  0  0  0  0  0  0  0  0  0  0
  -29.4980   12.0250  -12.4710 C   0  0  0  0  0  0  0  0  0  0  0  0
  -29.8510   10.7800  -12.0240 C   0  0  0  0  0  0  0  0  0  0  0  0
  -28.5060   11.7760  -13.5580 C   0  0  0  0  0  0  0  0  0  0  0  0
  -29.2230    9.7480  -12.6950 N   0  0  0  0  0  0  0  0  0  0  0  0
  -28.4040   10.3080  -13.6280 C   0  0  0  0  0  0  0  0  0  0  0  0
  -27.7190   12.6530  -14.3280 C   0  0  0  0  0  0  0  0  0  0  0  0
  -27.4980    9.7360  -14.5270 C   0  0  0  0  0  0  0  0  0  0  0  0
  -26.8850   12.0330  -15.2900 C   0  0  0  0  0  0  0  0  0  0  0  0
  -26.8160   10.6080  -15.3650 C   0  0  0  0  0  0  0  0  0  0  0  0
  -28.6010   11.9650   -8.9830 O   0  0  0  0  0  0  0  0  0  0  0  0
  -24.0188    6.8949   -5.1974 H   0  0  0  0  0  0  0  0  0  0  0  0
  -24.8874    8.3241   -4.5764 H   0  0  0  0  0  0  0  0  0  0  0  0
  -22.7594    7.0032   -7.0849 H   0  0  0  0  0  0  0  0  0  0  0  0
  -24.8533   10.2799   -5.7238 H   0  0  0  0  0  0  0  0  0  0  0  0
  -22.8901   12.6869  -10.6042 H   0  0  0  0  0  0  0  0  0  0  0  0
  -24.5743   13.6386  -11.1077 H   0  0  0  0  0  0  0  0  0  0  0  0
  -25.5814   16.1279  -10.0551 H   0  0  0  0  0  0  0  0  0  0  0  0
  -24.1291   15.8858  -12.1563 H   0  0  0  0  0  0  0  0  0  0  0  0
  -25.6466   16.8102  -12.4193 H   0  0  0  0  0  0  0  0  0  0  0  0
  -25.2794   14.0092  -12.9503 H   0  0  0  0  0  0  0  0  0  0  0  0
  -27.1920   13.1038  -10.4049 H   0  0  0  0  0  0  0  0  0  0  0  0
  -29.6806   14.7004  -10.2516 H   0  0  0  0  0  0  0  0  0  0  0  0
  -29.7087   14.1520  -12.6473 H   0  0  0  0  0  0  0  0  0  0  0  0
  -31.0262   13.3384  -11.7369 H   0  0  0  0  0  0  0  0  0  0  0  0
  -30.5611   10.6179  -11.2144 H   0  0  0  0  0  0  0  0  0  0  0  0
  -29.3508    8.7408  -12.5215 H   0  0  0  0  0  0  0  0  0  0  0  0
  -27.7492   13.7283  -14.1939 H   0  0  0  0  0  0  0  0  0  0  0  0
  -27.3363    8.6649  -14.5675 H   0  0  0  0  0  0  0  0  0  0  0  0
  -26.2985   12.6401  -15.9700 H   0  0  0  0  0  0  0  0  0  0  0  0
  -26.1846   10.1757  -16.1328 H   0  0  0  0  0  0  0  0  0  0  0  0
  1  2  1  1  0  0  0
  1  5  1  0  0  0  0
  2 36  1  0  0  0  0
  2 37  1  0  0  0  0
  4  3  2  0  0  0  0
  4  5  1  0  0  0  0
  5 38  1  0  0  0  0
  6  4  1  0  0  0  0
  6 12  1  0  0  0  0
  7  1  1  0  0  0  0
  7 39  1  0  0  0  0
  9  6  2  0  0  0  0
  9  7  1  0  0  0  0
 10  9  1  0  0  0  0
 11 10  2  0  0  0  0
 11 13  1  0  0  0  0
 11 14  1  0  0  0  0
 12 13  2  0  0  0  0
 13 40  1  0  0  0  0
 14  8  2  0  0  0  0
 14 15  1  0  0  0  0
 15 16  1  0  0  0  0
 15 41  1  0  0  0  0
 16 17  1  0  0  0  0
 16 19  1  0  0  0  0
 16 42  1  1  0  0  0
 17 18  2  0  0  0  0
 17 21  1  0  0  0  0
 19 20  1  0  0  0  0
 19 43  1  0  0  0  0
 19 44  1  0  0  0  0
 20 45  1  0  0  0  0
 21 22  1  0  0  0  0
 21 46  1  0  0  0  0
 22 23  1  0  0  0  0
 22 25  1  0  0  0  0
 22 47  1  1  0  0  0
 23 24  1  0  0  0  0
 23 35  2  0  0  0  0
 25 26  1  0  0  0  0
 25 48  1  0  0  0  0
 25 49  1  0  0  0  0
 26 27  2  0  0  0  0
 26 28  1  0  0  0  0
 27 29  1  0  0  0  0
 27 50  1  0  0  0  0
 28 30  2  0  0  0  0
 28 31  1  0  0  0  0
 29 30  1  0  0  0  0
 29 51  1  0  0  0  0
 30 32  1  0  0  0  0
 31 33  2  0  0  0  0
 31 52  1  0  0  0  0
 32 34  2  0  0  0  0
 32 53  1  0  0  0  0
 33 34  1  0  0  0  0
 33 54  1  0  0  0  0
 34 55  1  0  0  0  0
M  CHG  1  24  -1
M  END
