4hvi_ligand
 OpenBabel08222323353D

 48 51  0  0  1  0  0  0  0  0999 V2000
    5.3540  -16.0890   -5.5840 N   0  0  0  0  0  0  0  0  0  0  0  0
    6.1610  -15.2020   -6.4320 C   0  0  0  0  0  0  0  0  0  0  0  0
    7.1600  -14.5010   -5.5090 C   0  0  0  0  0  0  0  0  0  0  0  0
    8.0360  -15.5530   -4.8150 C   0  0  0  0  0  0  0  0  0  0  0  0
    7.2170  -16.6180   -4.0670 C   0  0  0  0  0  0  0  0  0  0  0  0
    6.0760  -17.1920   -4.9350 C   0  0  0  0  0  0  0  0  0  0  0  0
   -2.5350  -14.2800   -3.0510 N   0  0  0  0  0  0  0  0  0  0  0  0
   -1.2720  -16.1750   -3.7370 C   0  0  0  0  0  0  0  0  0  0  0  0
   -2.4230  -15.6060   -3.1920 C   0  0  0  0  0  0  0  0  0  0  0  0
   -0.2630  -15.3960   -4.1300 N   0  0  0  0  0  0  0  0  0  0  0  0
   -0.3650  -14.0710   -4.0040 C   0  0  0  0  0  0  0  0  0  0  0  0
   -1.5310  -13.4810   -3.4500 C   0  0  0  0  0  0  0  0  0  0  0  0
   -1.3390  -12.1110   -3.4490 N   0  0  0  0  0  0  0  0  0  0  0  0
   -0.1230  -11.8150   -3.9890 C   0  0  0  0  0  0  0  0  0  0  0  0
    0.5350  -12.9630   -4.3340 C   0  0  0  0  0  0  0  0  0  0  0  0
    1.8490  -13.1240   -4.9750 C   0  0  0  0  0  0  0  0  0  0  0  0
    2.1250  -14.3530   -5.4270 N   0  0  0  0  0  0  0  0  0  0  0  0
    2.6350  -12.2040   -5.1260 O   0  0  0  0  0  0  0  0  0  0  0  0
    3.3400  -14.7410   -6.1370 C   0  0  1  0  0  0  0  0  0  0  0  0
   -1.1870  -17.6730   -3.8990 C   0  0  0  0  0  0  0  0  0  0  0  0
   -0.4850  -18.1880   -5.1630 C   0  0  0  0  0  0  0  0  0  0  0  0
    0.1630  -18.3930   -3.7840 C   0  0  0  0  0  0  0  0  0  0  0  0
    4.0160  -15.8860   -5.4180 C   0  0  0  0  0  0  0  0  0  0  0  0
    2.8670  -15.2650   -7.5040 C   0  0  0  0  0  0  0  0  0  0  0  0
    3.3230  -16.6190   -4.7190 O   0  0  0  0  0  0  0  0  0  0  0  0
    5.5164  -14.4602   -6.9262 H   0  0  0  0  0  0  0  0  0  0  0  0
    6.6956  -15.7886   -7.1936 H   0  0  0  0  0  0  0  0  0  0  0  0
    6.6144  -13.9197   -4.7511 H   0  0  0  0  0  0  0  0  0  0  0  0
    7.7959  -13.8263   -6.1009 H   0  0  0  0  0  0  0  0  0  0  0  0
    8.6905  -15.0430   -4.0928 H   0  0  0  0  0  0  0  0  0  0  0  0
    8.6510  -16.0548   -5.5766 H   0  0  0  0  0  0  0  0  0  0  0  0
    6.7814  -16.1617   -3.1659 H   0  0  0  0  0  0  0  0  0  0  0  0
    7.8873  -17.4397   -3.7745 H   0  0  0  0  0  0  0  0  0  0  0  0
    6.4981  -17.8566   -5.7032 H   0  0  0  0  0  0  0  0  0  0  0  0
    5.3819  -17.7610   -4.2991 H   0  0  0  0  0  0  0  0  0  0  0  0
   -3.2387  -16.2473   -2.8781 H   0  0  0  0  0  0  0  0  0  0  0  0
   -2.0136  -11.4186   -3.0936 H   0  0  0  0  0  0  0  0  0  0  0  0
    0.2686  -10.8081   -4.1261 H   0  0  0  0  0  0  0  0  0  0  0  0
    1.4418  -15.0650   -5.2648 H   0  0  0  0  0  0  0  0  0  0  0  0
    4.0268  -13.8885   -6.2444 H   0  0  0  0  0  0  0  0  0  0  0  0
   -2.1010  -18.1514   -3.5173 H   0  0  0  0  0  0  0  0  0  0  0  0
   -0.0455  -17.4760   -5.8771 H   0  0  0  0  0  0  0  0  0  0  0  0
   -0.8982  -19.0482   -5.7101 H   0  0  0  0  0  0  0  0  0  0  0  0
    0.2137  -19.4000   -3.3443 H   0  0  0  0  0  0  0  0  0  0  0  0
    1.0664  -17.8278   -3.5112 H   0  0  0  0  0  0  0  0  0  0  0  0
    3.7382  -15.5781   -8.0981 H   0  0  0  0  0  0  0  0  0  0  0  0
    2.3281  -14.4672   -8.0360 H   0  0  0  0  0  0  0  0  0  0  0  0
    2.1966  -16.1243   -7.3553 H   0  0  0  0  0  0  0  0  0  0  0  0
  1  2  1  0  0  0  0
  1  6  1  0  0  0  0
  2  3  1  0  0  0  0
  2 26  1  0  0  0  0
  2 27  1  0  0  0  0
  3  4  1  0  0  0  0
  3 28  1  0  0  0  0
  3 29  1  0  0  0  0
  4 30  1  0  0  0  0
  4 31  1  0  0  0  0
  5  4  1  0  0  0  0
  5 32  1  0  0  0  0
  5 33  1  0  0  0  0
  6  5  1  0  0  0  0
  6 34  1  0  0  0  0
  6 35  1  0  0  0  0
  7  9  2  0  0  0  0
  8  9  1  0  0  0  0
  8 20  1  0  0  0  0
  9 36  1  0  0  0  0
 10  8  2  0  0  0  0
 11 10  1  0  0  0  0
 11 12  2  0  0  0  0
 12  7  1  0  0  0  0
 13 12  1  0  0  0  0
 13 37  1  0  0  0  0
 14 13  1  0  0  0  0
 14 38  1  0  0  0  0
 15 11  1  0  0  0  0
 15 14  2  0  0  0  0
 16 15  1  0  0  0  0
 16 18  2  0  0  0  0
 17 16  1  0  0  0  0
 17 39  1  0  0  0  0
 19 17  1  0  0  0  0
 19 23  1  0  0  0  0
 19 24  1  0  0  0  0
 19 40  1  6  0  0  0
 20 21  1  0  0  0  0
 20 22  1  0  0  0  0
 20 41  1  0  0  0  0
 21 22  1  0  0  0  0
 21 42  1  0  0  0  0
 21 43  1  0  0  0  0
 22 44  1  0  0  0  0
 22 45  1  0  0  0  0
 23  1  1  0  0  0  0
 23 25  2  0  0  0  0
 24 46  1  0  0  0  0
 24 47  1  0  0  0  0
 24 48  1  0  0  0  0
M  END
