4hvs_ligand
 OpenBabel08222323353D

 45 48  0  0  0  0  0  0  0  0999 V2000
   12.7410    3.1490   11.2340 C   0  0  0  0  0  0  0  0  0  0  0  0
   12.8000    2.7810   12.5790 C   0  0  0  0  0  0  0  0  0  0  0  0
   13.0910    1.5240   13.0330 N   0  0  0  0  0  0  0  0  0  0  0  0
   13.0220    2.1740   10.2490 C   0  0  0  0  0  0  0  0  0  0  0  0
   13.6750   -0.6850   12.2510 N   0  0  0  0  0  0  0  0  0  0  0  0
   13.8670   -1.3110   11.0340 C   0  0  0  0  0  0  0  0  0  0  0  0
   13.6900   -0.3840   10.0070 C   0  0  0  0  0  0  0  0  0  0  0  0
   13.3450    0.8640   10.6710 C   0  0  0  0  0  0  0  0  0  0  0  0
   13.3460    0.6300   12.0500 C   0  0  0  0  0  0  0  0  0  0  0  0
   13.8010   -0.6090    8.5210 C   0  0  0  0  0  0  0  0  0  0  0  0
   14.3340   -1.9850    8.2080 C   0  0  0  0  0  0  0  0  0  0  0  0
   15.5900   -2.1770    7.6450 C   0  0  0  0  0  0  0  0  0  0  0  0
   16.1040   -3.4060    7.3560 N   0  0  0  0  0  0  0  0  0  0  0  0
   15.3370   -4.5150    7.6310 C   0  0  0  0  0  0  0  0  0  0  0  0
   14.0890   -4.4070    8.2120 C   0  0  0  0  0  0  0  0  0  0  0  0
   13.5940   -3.1460    8.4870 C   0  0  0  0  0  0  0  0  0  0  0  0
   15.9210   -5.7340    7.3510 N   0  0  0  0  0  0  0  0  0  0  0  0
   17.1980   -5.7130    6.6830 C   0  0  0  0  0  0  0  0  0  0  0  0
   18.4720   -5.9240    7.4130 C   0  0  0  0  0  0  0  0  0  0  0  0
   18.5510   -6.1680    8.7910 C   0  0  0  0  0  0  0  0  0  0  0  0
   19.8140   -6.3330    9.3750 C   0  0  0  0  0  0  0  0  0  0  0  0
   20.9600   -6.2550    8.5740 C   0  0  0  0  0  0  0  0  0  0  0  0
   20.8790   -5.9930    7.1950 C   0  0  0  0  0  0  0  0  0  0  0  0
   19.6190   -5.8380    6.6290 C   0  0  0  0  0  0  0  0  0  0  0  0
   22.3020   -6.4640    9.1730 C   0  0  0  0  0  0  0  0  0  0  0  0
   22.8090   -5.4800    9.9490 F   0  0  0  0  0  0  0  0  0  0  0  0
   22.2640   -7.5730    9.9280 F   0  0  0  0  0  0  0  0  0  0  0  0
   23.2520   -6.6870    8.2580 F   0  0  0  0  0  0  0  0  0  0  0  0
   12.4846    4.1632   10.9497 H   0  0  0  0  0  0  0  0  0  0  0  0
   12.6005    3.5481   13.3185 H   0  0  0  0  0  0  0  0  0  0  0  0
   12.9905    2.4252    9.1950 H   0  0  0  0  0  0  0  0  0  0  0  0
   13.7656   -1.1388   13.1712 H   0  0  0  0  0  0  0  0  0  0  0  0
   14.1170   -2.3622   10.8983 H   0  0  0  0  0  0  0  0  0  0  0  0
   14.4817    0.1431    8.0955 H   0  0  0  0  0  0  0  0  0  0  0  0
   12.8047   -0.5001    8.0677 H   0  0  0  0  0  0  0  0  0  0  0  0
   16.1927   -1.3035    7.4241 H   0  0  0  0  0  0  0  0  0  0  0  0
   13.5097   -5.2924    8.4475 H   0  0  0  0  0  0  0  0  0  0  0  0
   12.6090   -3.0505    8.9295 H   0  0  0  0  0  0  0  0  0  0  0  0
   15.4639   -6.6204    7.6084 H   0  0  0  0  0  0  0  0  0  0  0  0
   17.2781   -4.7263    6.2034 H   0  0  0  0  0  0  0  0  0  0  0  0
   17.1536   -6.4941    5.9098 H   0  0  0  0  0  0  0  0  0  0  0  0
   17.6519   -6.2279    9.3936 H   0  0  0  0  0  0  0  0  0  0  0  0
   19.9033   -6.5197   10.4391 H   0  0  0  0  0  0  0  0  0  0  0  0
   21.7748   -5.9140    6.5897 H   0  0  0  0  0  0  0  0  0  0  0  0
   19.5286   -5.6481    5.5656 H   0  0  0  0  0  0  0  0  0  0  0  0
  1  4  1  0  0  0  0
  1 29  1  0  0  0  0
  2  1  2  0  0  0  0
  2 30  1  0  0  0  0
  3  2  1  0  0  0  0
  4  8  2  0  0  0  0
  4 31  1  0  0  0  0
  5  6  1  0  0  0  0
  5  9  1  0  0  0  0
  5 32  1  0  0  0  0
  6  7  2  0  0  0  0
  6 33  1  0  0  0  0
  7  8  1  0  0  0  0
  7 10  1  0  0  0  0
  8  9  1  0  0  0  0
  9  3  2  0  0  0  0
 10 11  1  0  0  0  0
 10 34  1  0  0  0  0
 10 35  1  0  0  0  0
 11 12  2  0  0  0  0
 11 16  1  0  0  0  0
 12 13  1  0  0  0  0
 12 36  1  0  0  0  0
 13 14  2  0  0  0  0
 14 15  1  0  0  0  0
 14 17  1  0  0  0  0
 15 16  2  0  0  0  0
 15 37  1  0  0  0  0
 16 38  1  0  0  0  0
 17 18  1  0  0  0  0
 17 39  1  0  0  0  0
 18 19  1  0  0  0  0
 18 40  1  0  0  0  0
 18 41  1  0  0  0  0
 19 20  2  0  0  0  0
 19 24  1  0  0  0  0
 20 21  1  0  0  0  0
 20 42  1  0  0  0  0
 21 22  2  0  0  0  0
 21 43  1  0  0  0  0
 22 23  1  0  0  0  0
 22 25  1  0  0  0  0
 23 24  2  0  0  0  0
 23 44  1  0  0  0  0
 24 45  1  0  0  0  0
 25 26  1  0  0  0  0
 25 27  1  0  0  0  0
 25 28  1  0  0  0  0
M  END
