4hxj_ligand
 OpenBabel08222323353D

 48 47  0  0  1  0  0  0  0  0999 V2000
   12.9530  -17.0970   14.1460 N   0  3  0  0  0  0  0  0  0  0  0  0
   14.1870  -17.1600   14.9270 C   0  0  2  0  0  0  0  0  0  0  0  0
   13.8560  -17.2050   16.4190 C   0  0  0  0  0  0  0  0  0  0  0  0
   12.9190  -16.5530   16.8690 O   0  0  0  0  0  0  0  0  0  0  0  0
   15.0900  -15.9730   14.5920 C   0  0  0  0  0  0  0  0  0  0  0  0
   16.5720  -16.2860   14.6360 C   0  0  0  0  0  0  0  0  0  0  0  0
   17.3900  -15.1310   14.0820 C   0  0  0  0  0  0  0  0  0  0  0  0
   18.7650  -15.1630   14.5720 N   0  0  0  0  0  0  0  0  0  0  0  0
   19.7830  -15.7160   13.9200 C   0  0  0  0  0  3  0  0  0  0  0  0
   19.5920  -16.2840   12.7360 N   0  0  0  0  0  0  0  0  0  0  0  0
   20.9970  -15.6960   14.4510 N   0  0  0  0  0  0  0  0  0  0  0  0
   14.6310  -17.9720   17.1800 N   0  0  0  0  0  0  0  0  0  0  0  0
   14.2260  -18.3770   18.5160 C   0  0  0  0  0  0  0  0  0  0  0  0
   14.5480  -17.5100   19.7240 C   0  0  0  0  0  0  0  0  0  0  0  0
   13.8710  -16.5160   19.9860 O   0  0  0  0  0  0  0  0  0  0  0  0
   15.5970  -17.9030   20.4450 N   0  0  0  0  0  0  0  0  0  0  0  0
   15.8220  -17.5440   21.8500 C   0  0  2  0  0  0  0  0  0  0  0  0
   15.1770  -18.6270   22.7100 C   0  0  0  0  0  0  0  0  0  0  0  0
   15.5380  -18.8570   23.8650 O   0  5  0  0  0  0  0  0  0  0  0  0
   15.2400  -16.1720   22.2580 C   0  0  2  0  0  0  0  0  0  0  0  0
   15.9290  -15.1230   21.5690 O   0  0  0  0  0  0  0  0  0  0  0  0
   15.3950  -15.9610   23.7540 C   0  0  0  0  0  0  0  0  0  0  0  0
   14.2650  -19.3110   22.2500 O   0  0  0  0  0  0  0  0  0  0  0  0
   13.1781  -17.0676   13.1639 H   0  0  0  0  0  0  0  0  0  0  0  0
   12.4380  -16.2678   14.3976 H   0  0  0  0  0  0  0  0  0  0  0  0
   12.3919  -17.9122   14.3378 H   0  0  0  0  0  0  0  0  0  0  0  0
   14.7214  -18.0845   14.6629 H   0  0  0  0  0  0  0  0  0  0  0  0
   14.8858  -15.1697   15.3152 H   0  0  0  0  0  0  0  0  0  0  0  0
   14.8411  -15.6258   13.5784 H   0  0  0  0  0  0  0  0  0  0  0  0
   16.7675  -17.1860   14.0346 H   0  0  0  0  0  0  0  0  0  0  0  0
   16.8699  -16.4699   15.6788 H   0  0  0  0  0  0  0  0  0  0  0  0
   16.9235  -14.1834   14.3892 H   0  0  0  0  0  0  0  0  0  0  0  0
   17.4007  -15.1954   12.9840 H   0  0  0  0  0  0  0  0  0  0  0  0
   18.9595  -14.7275   15.4849 H   0  0  0  0  0  0  0  0  0  0  0  0
   20.3847  -16.7108   12.2357 H   0  0  0  0  0  0  0  0  0  0  0  0
   18.6510  -16.2980   12.3173 H   0  0  0  0  0  0  0  0  0  0  0  0
   21.1501  -15.2563   15.3697 H   0  0  0  0  0  0  0  0  0  0  0  0
   21.7875  -16.1202   13.9450 H   0  0  0  0  0  0  0  0  0  0  0  0
   15.5142  -18.2778   16.8245 H   0  0  0  0  0  0  0  0  0  0  0  0
   14.6898  -19.3572   18.7008 H   0  0  0  0  0  0  0  0  0  0  0  0
   13.1319  -18.4877   18.4921 H   0  0  0  0  0  0  0  0  0  0  0  0
   16.2782  -18.4827   19.9979 H   0  0  0  0  0  0  0  0  0  0  0  0
   16.9063  -17.5250   22.0344 H   0  0  0  0  0  0  0  0  0  0  0  0
   14.1724  -16.1413   21.9948 H   0  0  0  0  0  0  0  0  0  0  0  0
   15.8263  -15.2404   20.6319 H   0  0  0  0  0  0  0  0  0  0  0  0
   14.9773  -14.9819   24.0314 H   0  0  0  0  0  0  0  0  0  0  0  0
   16.4618  -15.9933   24.0203 H   0  0  0  0  0  0  0  0  0  0  0  0
   14.8581  -16.7549   24.2939 H   0  0  0  0  0  0  0  0  0  0  0  0
  1  2  1  0  0  0  0
  1 24  1  0  0  0  0
  1 25  1  0  0  0  0
  1 26  1  0  0  0  0
  2  3  1  0  0  0  0
  2  5  1  0  0  0  0
  2 27  1  6  0  0  0
  3  4  2  0  0  0  0
  3 12  1  0  0  0  0
  5  6  1  0  0  0  0
  5 28  1  0  0  0  0
  5 29  1  0  0  0  0
  6  7  1  0  0  0  0
  6 30  1  0  0  0  0
  6 31  1  0  0  0  0
  7  8  1  0  0  0  0
  7 32  1  0  0  0  0
  7 33  1  0  0  0  0
  8  9  1  0  0  0  0
  8 34  1  0  0  0  0
  9 10  1  0  0  0  0
  9 11  1  0  0  0  0
 10 35  1  0  0  0  0
 10 36  1  0  0  0  0
 11 37  1  0  0  0  0
 11 38  1  0  0  0  0
 12 13  1  0  0  0  0
 12 39  1  0  0  0  0
 13 14  1  0  0  0  0
 13 40  1  0  0  0  0
 13 41  1  0  0  0  0
 14 15  2  0  0  0  0
 14 16  1  0  0  0  0
 16 17  1  0  0  0  0
 16 42  1  0  0  0  0
 17 18  1  0  0  0  0
 17 20  1  0  0  0  0
 17 43  1  1  0  0  0
 18 19  1  0  0  0  0
 18 23  2  0  0  0  0
 20 21  1  0  0  0  0
 20 22  1  0  0  0  0
 20 44  1  6  0  0  0
 21 45  1  0  0  0  0
 22 46  1  0  0  0  0
 22 47  1  0  0  0  0
 22 48  1  0  0  0  0
M  CHG  2   1   1  19  -1
M  END
