4hy0_ligand
 OpenBabel08222323353D

 90 94  0  0  1  0  0  0  0  0999 V2000
   -0.5860    1.0650  -35.5510 N   0  3  0  0  0  0  0  0  0  0  0  0
   -0.2600   -0.3650  -35.3670 C   0  0  0  0  0  0  0  0  0  0  0  0
   -0.8190    1.7640  -34.2770 C   0  0  1  0  0  0  0  0  0  0  0  0
   -0.8940    3.2770  -34.4810 C   0  0  0  0  0  0  0  0  0  0  0  0
   -2.1150    1.2870  -33.6820 C   0  0  0  0  0  0  0  0  0  0  0  0
   -3.1210    1.2180  -34.3460 O   0  0  0  0  0  0  0  0  0  0  0  0
   -3.7440    1.6040  -30.8120 C   0  0  0  0  0  0  0  0  0  0  0  0
   -2.8940    2.3680  -30.4040 O   0  0  0  0  0  0  0  0  0  0  0  0
   -3.2610    0.4440  -31.6520 C   0  0  1  0  0  0  0  0  0  0  0  0
   -2.1060    0.9380  -32.3920 N   0  0  0  0  0  0  0  0  0  0  0  0
   -2.6380   -0.7250  -30.8870 C   0  0  0  0  0  0  0  0  0  0  0  0
   -3.2880   -1.1050  -29.5580 C   0  0  0  0  0  0  0  0  0  0  0  0
   -2.2940   -2.0640  -28.8800 C   0  0  0  0  0  0  0  0  0  0  0  0
   -1.9300   -3.2640  -29.7840 C   0  0  0  0  0  0  0  0  0  0  0  0
   -0.8660   -3.9690  -29.2260 F   0  0  0  0  0  0  0  0  0  0  0  0
   -3.0350   -4.1100  -29.8740 F   0  0  0  0  0  0  0  0  0  0  0  0
   -1.5130   -2.8730  -31.2030 C   0  0  0  0  0  0  0  0  0  0  0  0
   -2.5900   -1.9630  -31.7900 C   0  0  0  0  0  0  0  0  0  0  0  0
  -11.1230   -1.6940  -28.9500 C   0  0  0  0  0  0  0  0  0  0  0  0
  -11.4560   -0.2230  -29.2390 C   0  0  0  0  0  0  0  0  0  0  0  0
  -10.3180    0.6050  -28.9410 O   0  0  0  0  0  0  0  0  0  0  0  0
   -9.7770    1.3780  -30.0270 C   0  0  2  0  0  0  0  0  0  0  0  0
   -8.6680    0.5900  -30.7870 C   0  0  0  0  0  0  0  0  0  0  0  0
   -7.5250    1.6170  -30.9320 C   0  0  2  0  0  0  0  0  0  0  0  0
   -6.1410    0.9540  -30.9850 C   0  0  0  0  0  0  0  0  0  0  0  0
   -5.0520    1.8590  -30.5190 N   0  0  0  0  0  0  0  0  0  0  0  0
   -5.3330    3.0550  -29.6980 C   0  0  1  0  0  0  0  0  0  0  0  0
   -6.7840    3.5530  -29.8050 C   0  0  0  0  0  0  0  0  0  0  0  0
   -7.6410    2.4010  -29.6760 N   0  3  1  0  0  0  0  0  0  0  0  0
   -9.0710    2.6360  -29.4700 C   0  0  0  0  0  0  0  0  0  0  0  0
   -5.0590    2.7500  -28.2590 C   0  0  0  0  0  0  0  0  0  0  0  0
   -4.9910    1.5980  -27.8890 O   0  0  0  0  0  0  0  0  0  0  0  0
   -4.9000    3.7880  -27.4160 N   0  0  0  0  0  0  0  0  0  0  0  0
   -4.6400    3.5980  -25.9890 C   0  0  2  0  0  0  0  0  0  0  0  0
   -6.0100    3.4290  -25.3180 C   0  0  0  0  0  0  0  0  0  0  0  0
   -5.9720    3.9200  -23.8650 C   0  0  0  0  0  0  0  0  0  0  0  0
   -5.5330    5.2810  -23.8350 O   0  0  0  0  0  0  0  0  0  0  0  0
   -4.3300    5.5540  -24.4030 C   0  0  0  0  0  0  0  0  0  0  0  0
   -3.5870    6.6290  -23.9200 C   0  0  0  0  0  0  0  0  0  0  0  0
   -2.3660    6.9270  -24.4920 C   0  0  0  0  0  0  0  0  0  0  0  0
   -1.8870    6.1510  -25.5380 C   0  0  0  0  0  0  0  0  0  0  0  0
   -2.6220    5.0800  -26.0170 C   0  0  0  0  0  0  0  0  0  0  0  0
   -3.8540    4.7790  -25.4520 C   0  0  0  0  0  0  0  0  0  0  0  0
   -1.4188    1.1358  -36.1144 H   0  0  0  0  0  0  0  0  0  0  0  0
    0.1814    1.5117  -36.0280 H   0  0  0  0  0  0  0  0  0  0  0  0
   -0.0970   -0.8332  -36.3490 H   0  0  0  0  0  0  0  0  0  0  0  0
   -1.0933   -0.8681  -34.8548 H   0  0  0  0  0  0  0  0  0  0  0  0
    0.6529   -0.4579  -34.7605 H   0  0  0  0  0  0  0  0  0  0  0  0
    0.0067    1.5355  -33.5871 H   0  0  0  0  0  0  0  0  0  0  0  0
   -1.0684    3.7693  -33.5129 H   0  0  0  0  0  0  0  0  0  0  0  0
   -1.7206    3.5140  -35.1670 H   0  0  0  0  0  0  0  0  0  0  0  0
    0.0530    3.6366  -34.9099 H   0  0  0  0  0  0  0  0  0  0  0  0
   -4.0723    0.0939  -32.3071 H   0  0  0  0  0  0  0  0  0  0  0  0
   -1.2414    1.0221  -31.8966 H   0  0  0  0  0  0  0  0  0  0  0  0
   -1.6032   -0.4309  -30.6574 H   0  0  0  0  0  0  0  0  0  0  0  0
   -4.2516   -1.6070  -29.7298 H   0  0  0  0  0  0  0  0  0  0  0  0
   -3.4459   -0.2111  -28.9367 H   0  0  0  0  0  0  0  0  0  0  0  0
   -2.7457   -2.4441  -27.9518 H   0  0  0  0  0  0  0  0  0  0  0  0
   -1.3746   -1.5097  -28.6402 H   0  0  0  0  0  0  0  0  0  0  0  0
   -1.4122   -3.7763  -31.8225 H   0  0  0  0  0  0  0  0  0  0  0  0
   -0.5516   -2.3393  -31.1737 H   0  0  0  0  0  0  0  0  0  0  0  0
   -2.3277   -1.6754  -32.8188 H   0  0  0  0  0  0  0  0  0  0  0  0
   -3.5639   -2.4743  -31.7892 H   0  0  0  0  0  0  0  0  0  0  0  0
  -11.9977   -2.3200  -29.1803 H   0  0  0  0  0  0  0  0  0  0  0  0
  -10.8595   -1.8086  -27.8882 H   0  0  0  0  0  0  0  0  0  0  0  0
  -10.2734   -2.0072  -29.5745 H   0  0  0  0  0  0  0  0  0  0  0  0
  -12.3065    0.0878  -28.6145 H   0  0  0  0  0  0  0  0  0  0  0  0
  -11.7204   -0.1108  -30.3008 H   0  0  0  0  0  0  0  0  0  0  0  0
  -10.5869    1.6596  -30.7160 H   0  0  0  0  0  0  0  0  0  0  0  0
   -9.0267    0.2603  -31.7732 H   0  0  0  0  0  0  0  0  0  0  0  0
   -8.3389   -0.2838  -30.2055 H   0  0  0  0  0  0  0  0  0  0  0  0
   -7.6698    2.2472  -31.8218 H   0  0  0  0  0  0  0  0  0  0  0  0
   -5.9321    0.6577  -32.0235 H   0  0  0  0  0  0  0  0  0  0  0  0
   -6.1541    0.0601  -30.3442 H   0  0  0  0  0  0  0  0  0  0  0  0
   -4.6638    3.8619  -30.0312 H   0  0  0  0  0  0  0  0  0  0  0  0
   -6.9458    4.0357  -30.7801 H   0  0  0  0  0  0  0  0  0  0  0  0
   -6.9959    4.2722  -29.0001 H   0  0  0  0  0  0  0  0  0  0  0  0
   -7.3032    1.8556  -28.8985 H   0  0  0  0  0  0  0  0  0  0  0  0
   -9.2907    2.7585  -28.3992 H   0  0  0  0  0  0  0  0  0  0  0  0
   -9.3963    3.5337  -30.0162 H   0  0  0  0  0  0  0  0  0  0  0  0
   -4.9616    4.7185  -27.7770 H   0  0  0  0  0  0  0  0  0  0  0  0
   -4.0471    2.6843  -25.8350 H   0  0  0  0  0  0  0  0  0  0  0  0
   -6.2889    2.3650  -25.3314 H   0  0  0  0  0  0  0  0  0  0  0  0
   -6.7584    4.0113  -25.8755 H   0  0  0  0  0  0  0  0  0  0  0  0
   -5.2754    3.2968  -23.2851 H   0  0  0  0  0  0  0  0  0  0  0  0
   -6.9787    3.8494  -23.4272 H   0  0  0  0  0  0  0  0  0  0  0  0
   -3.9653    7.2282  -23.0997 H   0  0  0  0  0  0  0  0  0  0  0  0
   -1.7836    7.7644  -24.1251 H   0  0  0  0  0  0  0  0  0  0  0  0
   -0.9276    6.3858  -25.9846 H   0  0  0  0  0  0  0  0  0  0  0  0
   -2.2364    4.4776  -26.8316 H   0  0  0  0  0  0  0  0  0  0  0  0
  1  2  1  0  0  0  0
  1 44  1  0  0  0  0
  1 45  1  0  0  0  0
  2 46  1  0  0  0  0
  2 47  1  0  0  0  0
  2 48  1  0  0  0  0
  3  1  1  0  0  0  0
  3  4  1  0  0  0  0
  3 49  1  1  0  0  0
  4 50  1  0  0  0  0
  4 51  1  0  0  0  0
  4 52  1  0  0  0  0
  5  3  1  0  0  0  0
  5  6  2  0  0  0  0
  7  8  2  0  0  0  0
  7  9  1  0  0  0  0
  9 10  1  0  0  0  0
  9 11  1  0  0  0  0
  9 53  1  6  0  0  0
 10  5  1  0  0  0  0
 10 54  1  0  0  0  0
 11 12  1  0  0  0  0
 11 18  1  0  0  0  0
 11 55  1  0  0  0  0
 12 13  1  0  0  0  0
 12 56  1  0  0  0  0
 12 57  1  0  0  0  0
 13 14  1  0  0  0  0
 13 58  1  0  0  0  0
 13 59  1  0  0  0  0
 14 15  1  0  0  0  0
 14 16  1  0  0  0  0
 17 14  1  0  0  0  0
 17 60  1  0  0  0  0
 17 61  1  0  0  0  0
 18 17  1  0  0  0  0
 18 62  1  0  0  0  0
 18 63  1  0  0  0  0
 19 64  1  0  0  0  0
 19 65  1  0  0  0  0
 19 66  1  0  0  0  0
 20 19  1  0  0  0  0
 20 67  1  0  0  0  0
 20 68  1  0  0  0  0
 21 20  1  0  0  0  0
 22 21  1  0  0  0  0
 22 30  1  0  0  0  0
 22 69  1  6  0  0  0
 23 22  1  0  0  0  0
 23 70  1  0  0  0  0
 23 71  1  0  0  0  0
 24 23  1  0  0  0  0
 24 29  1  0  0  0  0
 24 72  1  6  0  0  0
 25 24  1  0  0  0  0
 25 26  1  0  0  0  0
 25 73  1  0  0  0  0
 25 74  1  0  0  0  0
 26  7  1  0  0  0  0
 26 27  1  0  0  0  0
 27 28  1  0  0  0  0
 27 31  1  0  0  0  0
 27 75  1  6  0  0  0
 28 29  1  0  0  0  0
 28 76  1  0  0  0  0
 28 77  1  0  0  0  0
 29 30  1  0  0  0  0
 29 78  1  1  0  0  0
 30 79  1  0  0  0  0
 30 80  1  0  0  0  0
 31 32  2  0  0  0  0
 31 33  1  0  0  0  0
 33 34  1  0  0  0  0
 33 81  1  0  0  0  0
 34 35  1  0  0  0  0
 34 43  1  0  0  0  0
 34 82  1  1  0  0  0
 35 36  1  0  0  0  0
 35 83  1  0  0  0  0
 35 84  1  0  0  0  0
 36 37  1  0  0  0  0
 36 85  1  0  0  0  0
 36 86  1  0  0  0  0
 37 38  1  0  0  0  0
 38 39  2  0  0  0  0
 38 43  1  0  0  0  0
 39 40  1  0  0  0  0
 39 87  1  0  0  0  0
 40 41  2  0  0  0  0
 40 88  1  0  0  0  0
 41 42  1  0  0  0  0
 41 89  1  0  0  0  0
 42 43  2  0  0  0  0
 42 90  1  0  0  0  0
M  CHG  2   1   1  29   1
M  END
