4hyb_ligand
 OpenBabel08222323353D

142145  0  0  1  0  0  0  0  0999 V2000
  -45.2030   29.9330  -23.0840 N   0  3  0  0  0  0  0  0  0  0  0  0
  -44.8440   31.2680  -22.3120 C   0  0  2  0  0  0  0  0  0  0  0  0
  -44.0880   30.9950  -21.0020 C   0  0  0  0  0  0  0  0  0  0  0  0
  -44.6460   30.4060  -20.0850 O   0  0  0  0  0  0  0  0  0  0  0  0
  -46.0870   32.0910  -21.9940 C   0  0  0  0  0  0  0  0  0  0  0  0
  -45.8800   33.4750  -21.3330 C   0  0  0  0  0  0  0  0  0  0  0  0
  -45.6140   34.4950  -22.4350 C   0  0  0  0  0  0  0  0  0  0  0  0
  -47.1620   33.8880  -20.6200 C   0  0  0  0  0  0  0  0  0  0  0  0
  -42.7890   31.3850  -20.9070 N   0  0  0  0  0  0  0  0  0  0  0  0
  -42.0050   31.0560  -19.7470 C   0  0  2  0  0  0  0  0  0  0  0  0
  -42.0580   32.1560  -18.7310 C   0  0  0  0  0  0  0  0  0  0  0  0
  -42.3160   33.3550  -19.0520 O   0  0  0  0  0  0  0  0  0  0  0  0
  -40.5280   30.7830  -20.1460 C   0  0  0  0  0  0  0  0  0  0  0  0
  -40.3850   29.5330  -20.9840 C   0  0  0  0  0  0  0  0  0  0  0  0
  -40.1470   28.2830  -20.3630 C   0  0  0  0  0  0  0  0  0  0  0  0
  -40.4890   29.5860  -22.3730 C   0  0  0  0  0  0  0  0  0  0  0  0
  -40.0690   27.1100  -21.1140 C   0  0  0  0  0  0  0  0  0  0  0  0
  -40.3900   28.4120  -23.1380 C   0  0  0  0  0  0  0  0  0  0  0  0
  -40.1860   27.2060  -22.5020 C   0  0  0  0  0  0  0  0  0  0  0  0
  -40.0540   26.0550  -23.2600 O   0  0  0  0  0  0  0  0  0  0  0  0
  -41.7200   31.7640  -17.5140 N   0  0  0  0  0  0  0  0  0  0  0  0
  -41.9120   32.5890  -16.3550 C   0  0  2  0  0  0  0  0  0  0  0  0
  -40.5660   32.8620  -15.6590 C   0  0  0  0  0  0  0  0  0  0  0  0
  -39.6350   32.0390  -15.6740 O   0  0  0  0  0  0  0  0  0  0  0  0
  -42.9360   31.9410  -15.3740 C   0  0  0  0  0  0  0  0  0  0  0  0
  -44.2230   31.4370  -16.0310 C   0  0  0  0  0  0  0  0  0  0  0  0
  -45.0950   30.8070  -14.9020 C   0  0  0  0  0  0  0  0  0  0  0  0
  -46.3720   30.2450  -15.6040 C   0  0  0  0  0  0  0  0  0  0  0  0
  -47.1490   31.4180  -16.2540 C   0  0  0  0  0  0  0  0  0  0  0  0
  -46.2880   32.1510  -17.2990 C   0  0  0  0  0  0  0  0  0  0  0  0
  -44.9850   32.6270  -16.5910 C   0  0  0  0  0  0  0  0  0  0  0  0
  -40.4690   34.0290  -15.1010 N   0  0  0  0  0  0  0  0  0  0  0  0
  -39.2060   34.4810  -14.4920 C   0  0  2  0  0  0  0  0  0  0  0  0
  -39.3810   34.7170  -13.0000 C   0  0  0  0  0  0  0  0  0  0  0  0
  -40.3070   35.4270  -12.5680 O   0  0  0  0  0  0  0  0  0  0  0  0
  -38.6690   35.7700  -15.1160 C   0  0  2  0  0  0  0  0  0  0  0  0
  -38.5070   35.6760  -16.6690 C   0  0  0  0  0  0  0  0  0  0  0  0
  -37.3350   36.2360  -14.4340 C   0  0  0  0  0  0  0  0  0  0  0  0
  -38.2830   36.9970  -17.4210 C   0  0  0  0  0  0  0  0  0  0  0  0
  -38.4660   34.1670  -12.1940 N   0  0  0  0  0  0  0  0  0  0  0  0
  -38.7000   34.3370  -10.7520 C   0  0  2  0  0  0  0  0  0  0  0  0
  -38.3160   35.7250  -10.2010 C   0  0  0  0  0  0  0  0  0  0  0  0
  -37.6600   36.5730  -10.8450 O   0  0  0  0  0  0  0  0  0  0  0  0
  -37.7630   33.2990  -10.1330 C   0  0  0  0  0  0  0  0  0  0  0  0
  -36.6830   33.1990  -11.1360 C   0  0  0  0  0  0  0  0  0  0  0  0
  -37.4210   33.1700  -12.4450 C   0  0  0  0  0  0  0  0  0  0  0  0
  -38.6960   35.9390   -8.9710 N   0  0  0  0  0  0  0  0  0  0  0  0
  -38.3710   37.2400   -8.4010 C   0  0  2  0  0  0  0  0  0  0  0  0
  -36.8770   37.2820   -7.9500 C   0  0  0  0  0  0  0  0  0  0  0  0
  -36.2240   36.2010   -7.8700 O   0  0  0  0  0  0  0  0  0  0  0  0
  -39.2810   37.5190   -7.2120 C   0  0  0  0  0  0  0  0  0  0  0  0
  -39.0790   36.5400   -6.0580 C   0  0  0  0  0  0  0  0  0  0  0  0
  -39.6560   37.1650   -4.7950 C   0  0  0  0  0  0  0  0  0  0  0  0
  -40.0770   36.1570   -3.8390 N   0  0  0  0  0  0  0  0  0  0  0  0
  -39.4740   35.9140   -2.6830 C   0  0  0  0  0  3  0  0  0  0  0  0
  -38.4130   36.6220   -2.3200 N   0  0  0  0  0  0  0  0  0  0  0  0
  -39.9500   34.9640   -1.8840 N   0  0  0  0  0  0  0  0  0  0  0  0
  -36.3680   38.5000   -7.6830 N   0  0  0  0  0  0  0  0  0  0  0  0
  -34.9700   38.5820   -7.3170 C   0  0  2  0  0  0  0  0  0  0  0  0
  -34.8190   37.9080   -5.9610 C   0  0  0  0  0  0  0  0  0  0  0  0
  -35.7670   37.8580   -5.1660 O   0  0  0  0  0  0  0  0  0  0  0  0
  -34.7050   40.0610   -7.2640 C   0  0  0  0  0  0  0  0  0  0  0  0
  -35.8190   40.7210   -8.0280 C   0  0  0  0  0  0  0  0  0  0  0  0
  -36.9880   39.8370   -7.7580 C   0  0  0  0  0  0  0  0  0  0  0  0
  -33.6410   37.3210   -5.7170 N   0  0  0  0  0  0  0  0  0  0  0  0
  -45.6962   30.1585  -23.9337 H   0  0  0  0  0  0  0  0  0  0  0  0
  -45.7864   29.3539  -22.5006 H   0  0  0  0  0  0  0  0  0  0  0  0
  -44.3551   29.4367  -23.3093 H   0  0  0  0  0  0  0  0  0  0  0  0
  -44.1927   31.8656  -22.9667 H   0  0  0  0  0  0  0  0  0  0  0  0
  -46.7132   31.4928  -21.3158 H   0  0  0  0  0  0  0  0  0  0  0  0
  -46.6240   32.2551  -22.9399 H   0  0  0  0  0  0  0  0  0  0  0  0
  -45.0393   33.4396  -20.6245 H   0  0  0  0  0  0  0  0  0  0  0  0
  -45.4636   35.4882  -21.9868 H   0  0  0  0  0  0  0  0  0  0  0  0
  -46.4745   34.5282  -23.1194 H   0  0  0  0  0  0  0  0  0  0  0  0
  -44.7121   34.2045  -22.9936 H   0  0  0  0  0  0  0  0  0  0  0  0
  -47.3823   33.1698  -19.8165 H   0  0  0  0  0  0  0  0  0  0  0  0
  -47.9941   33.9000  -21.3393 H   0  0  0  0  0  0  0  0  0  0  0  0
  -47.0349   34.8922  -20.1894 H   0  0  0  0  0  0  0  0  0  0  0  0
  -42.3739   31.9067  -21.6523 H   0  0  0  0  0  0  0  0  0  0  0  0
  -42.4211   30.1433  -19.2956 H   0  0  0  0  0  0  0  0  0  0  0  0
  -39.9294   30.6662  -19.2305 H   0  0  0  0  0  0  0  0  0  0  0  0
  -40.1524   31.6410  -20.7227 H   0  0  0  0  0  0  0  0  0  0  0  0
  -40.0235   28.2368  -19.2871 H   0  0  0  0  0  0  0  0  0  0  0  0
  -40.6472   30.5385  -22.8656 H   0  0  0  0  0  0  0  0  0  0  0  0
  -39.9215   26.1499  -20.6329 H   0  0  0  0  0  0  0  0  0  0  0  0
  -40.4732   28.4539  -24.2180 H   0  0  0  0  0  0  0  0  0  0  0  0
  -39.3088   26.1444  -23.8424 H   0  0  0  0  0  0  0  0  0  0  0  0
  -41.3148   30.8574  -17.3965 H   0  0  0  0  0  0  0  0  0  0  0  0
  -42.3248   33.5531  -16.6868 H   0  0  0  0  0  0  0  0  0  0  0  0
  -43.2090   32.6925  -14.6186 H   0  0  0  0  0  0  0  0  0  0  0  0
  -42.4460   31.0878  -14.8821 H   0  0  0  0  0  0  0  0  0  0  0  0
  -44.0026   30.7043  -16.8213 H   0  0  0  0  0  0  0  0  0  0  0  0
  -45.3718   31.5719  -14.1615 H   0  0  0  0  0  0  0  0  0  0  0  0
  -44.5453   29.9954  -14.4029 H   0  0  0  0  0  0  0  0  0  0  0  0
  -47.0116   29.7459  -14.8612 H   0  0  0  0  0  0  0  0  0  0  0  0
  -46.0785   29.5225  -16.3798 H   0  0  0  0  0  0  0  0  0  0  0  0
  -47.4436   32.1306  -15.4695 H   0  0  0  0  0  0  0  0  0  0  0  0
  -48.0493   31.0218  -16.7464 H   0  0  0  0  0  0  0  0  0  0  0  0
  -46.8371   33.0180  -17.6949 H   0  0  0  0  0  0  0  0  0  0  0  0
  -46.0377   31.4676  -18.1238 H   0  0  0  0  0  0  0  0  0  0  0  0
  -44.3498   33.1552  -17.3173 H   0  0  0  0  0  0  0  0  0  0  0  0
  -45.2474   33.3092  -15.7689 H   0  0  0  0  0  0  0  0  0  0  0  0
  -41.2660   34.6328  -15.0839 H   0  0  0  0  0  0  0  0  0  0  0  0
  -38.4585   33.6877  -14.6398 H   0  0  0  0  0  0  0  0  0  0  0  0
  -39.4193   36.5506  -14.9218 H   0  0  0  0  0  0  0  0  0  0  0  0
  -39.4203   35.2139  -17.0720 H   0  0  0  0  0  0  0  0  0  0  0  0
  -37.6448   35.0248  -16.8753 H   0  0  0  0  0  0  0  0  0  0  0  0
  -37.4802   36.2924  -13.3451 H   0  0  0  0  0  0  0  0  0  0  0  0
  -37.0537   37.2276  -14.8182 H   0  0  0  0  0  0  0  0  0  0  0  0
  -36.5360   35.5148  -14.6605 H   0  0  0  0  0  0  0  0  0  0  0  0
  -38.1854   36.7940  -18.4977 H   0  0  0  0  0  0  0  0  0  0  0  0
  -37.3639   37.4768  -17.0536 H   0  0  0  0  0  0  0  0  0  0  0  0
  -39.1394   37.6659  -17.2502 H   0  0  0  0  0  0  0  0  0  0  0  0
  -39.7524   34.1289  -10.5089 H   0  0  0  0  0  0  0  0  0  0  0  0
  -38.2725   32.3331  -10.0009 H   0  0  0  0  0  0  0  0  0  0  0  0
  -37.3737   33.6438   -9.1637 H   0  0  0  0  0  0  0  0  0  0  0  0
  -36.0985   32.2781  -10.9938 H   0  0  0  0  0  0  0  0  0  0  0  0
  -36.0138   34.0703  -11.0813 H   0  0  0  0  0  0  0  0  0  0  0  0
  -36.7718   33.4661  -13.2822 H   0  0  0  0  0  0  0  0  0  0  0  0
  -37.8490   32.1769  -12.6463 H   0  0  0  0  0  0  0  0  0  0  0  0
  -39.1864   35.2439   -8.4453 H   0  0  0  0  0  0  0  0  0  0  0  0
  -38.5329   38.0143   -9.1654 H   0  0  0  0  0  0  0  0  0  0  0  0
  -40.3262   37.4522   -7.5483 H   0  0  0  0  0  0  0  0  0  0  0  0
  -39.0775   38.5365   -6.8470 H   0  0  0  0  0  0  0  0  0  0  0  0
  -38.0054   36.3447   -5.9194 H   0  0  0  0  0  0  0  0  0  0  0  0
  -39.5984   35.5953   -6.2763 H   0  0  0  0  0  0  0  0  0  0  0  0
  -40.5249   37.7819   -5.0678 H   0  0  0  0  0  0  0  0  0  0  0  0
  -38.8878   37.7993   -4.3286 H   0  0  0  0  0  0  0  0  0  0  0  0
  -40.9035   35.5897   -4.0755 H   0  0  0  0  0  0  0  0  0  0  0  0
  -37.9483   36.4294   -1.4212 H   0  0  0  0  0  0  0  0  0  0  0  0
  -38.0537   37.3645   -2.9369 H   0  0  0  0  0  0  0  0  0  0  0  0
  -40.7742   34.4162   -2.1694 H   0  0  0  0  0  0  0  0  0  0  0  0
  -39.4945   34.7758   -0.9796 H   0  0  0  0  0  0  0  0  0  0  0  0
  -34.3200   38.0936   -8.0579 H   0  0  0  0  0  0  0  0  0  0  0  0
  -33.7358   40.2906   -7.7309 H   0  0  0  0  0  0  0  0  0  0  0  0
  -34.7011   40.4094   -6.2207 H   0  0  0  0  0  0  0  0  0  0  0  0
  -35.5921   40.7572   -9.1037 H   0  0  0  0  0  0  0  0  0  0  0  0
  -36.0016   41.7404   -7.6573 H   0  0  0  0  0  0  0  0  0  0  0  0
  -37.4760   40.1025   -6.8086 H   0  0  0  0  0  0  0  0  0  0  0  0
  -37.7226   39.8891   -8.5751 H   0  0  0  0  0  0  0  0  0  0  0  0
  -33.4827   36.8618   -4.8429 H   0  0  0  0  0  0  0  0  0  0  0  0
  -32.9193   37.3416   -6.4089 H   0  0  0  0  0  0  0  0  0  0  0  0
  1  2  1  0  0  0  0
  1 66  1  0  0  0  0
  1 67  1  0  0  0  0
  1 68  1  0  0  0  0
  2  3  1  0  0  0  0
  2  5  1  0  0  0  0
  2 69  1  6  0  0  0
  3  4  2  0  0  0  0
  3  9  1  0  0  0  0
  5  6  1  0  0  0  0
  5 70  1  0  0  0  0
  5 71  1  0  0  0  0
  6  7  1  0  0  0  0
  6  8  1  0  0  0  0
  6 72  1  0  0  0  0
  7 73  1  0  0  0  0
  7 74  1  0  0  0  0
  7 75  1  0  0  0  0
  8 76  1  0  0  0  0
  8 77  1  0  0  0  0
  8 78  1  0  0  0  0
  9 10  1  0  0  0  0
  9 79  1  0  0  0  0
 10 11  1  0  0  0  0
 10 13  1  0  0  0  0
 10 80  1  1  0  0  0
 11 12  2  0  0  0  0
 11 21  1  0  0  0  0
 13 14  1  0  0  0  0
 13 81  1  0  0  0  0
 13 82  1  0  0  0  0
 14 15  2  0  0  0  0
 14 16  1  0  0  0  0
 15 17  1  0  0  0  0
 15 83  1  0  0  0  0
 16 18  2  0  0  0  0
 16 84  1  0  0  0  0
 17 19  2  0  0  0  0
 17 85  1  0  0  0  0
 18 19  1  0  0  0  0
 18 86  1  0  0  0  0
 19 20  1  0  0  0  0
 20 87  1  0  0  0  0
 21 22  1  0  0  0  0
 21 88  1  0  0  0  0
 22 23  1  0  0  0  0
 22 25  1  0  0  0  0
 22 89  1  6  0  0  0
 23 24  2  0  0  0  0
 23 32  1  0  0  0  0
 25 26  1  0  0  0  0
 25 90  1  0  0  0  0
 25 91  1  0  0  0  0
 26 27  1  0  0  0  0
 26 31  1  0  0  0  0
 26 92  1  0  0  0  0
 27 28  1  0  0  0  0
 27 93  1  0  0  0  0
 27 94  1  0  0  0  0
 28 29  1  0  0  0  0
 28 95  1  0  0  0  0
 28 96  1  0  0  0  0
 29 30  1  0  0  0  0
 29 97  1  0  0  0  0
 29 98  1  0  0  0  0
 30 31  1  0  0  0  0
 30 99  1  0  0  0  0
 30100  1  0  0  0  0
 31101  1  0  0  0  0
 31102  1  0  0  0  0
 32 33  1  0  0  0  0
 32103  1  0  0  0  0
 33 34  1  0  0  0  0
 33 36  1  0  0  0  0
 33104  1  6  0  0  0
 34 35  2  0  0  0  0
 34 40  1  0  0  0  0
 36 37  1  0  0  0  0
 36 38  1  0  0  0  0
 36105  1  1  0  0  0
 37 39  1  0  0  0  0
 37106  1  0  0  0  0
 37107  1  0  0  0  0
 38108  1  0  0  0  0
 38109  1  0  0  0  0
 38110  1  0  0  0  0
 39111  1  0  0  0  0
 39112  1  0  0  0  0
 39113  1  0  0  0  0
 40 41  1  0  0  0  0
 40 46  1  0  0  0  0
 41 42  1  0  0  0  0
 41 44  1  0  0  0  0
 41114  1  1  0  0  0
 42 43  2  0  0  0  0
 42 47  1  0  0  0  0
 44 45  1  0  0  0  0
 44115  1  0  0  0  0
 44116  1  0  0  0  0
 45 46  1  0  0  0  0
 45117  1  0  0  0  0
 45118  1  0  0  0  0
 46119  1  0  0  0  0
 46120  1  0  0  0  0
 47 48  1  0  0  0  0
 47121  1  0  0  0  0
 48 49  1  0  0  0  0
 48 51  1  0  0  0  0
 48122  1  6  0  0  0
 49 50  2  0  0  0  0
 49 58  1  0  0  0  0
 51 52  1  0  0  0  0
 51123  1  0  0  0  0
 51124  1  0  0  0  0
 52 53  1  0  0  0  0
 52125  1  0  0  0  0
 52126  1  0  0  0  0
 53 54  1  0  0  0  0
 53127  1  0  0  0  0
 53128  1  0  0  0  0
 54 55  1  0  0  0  0
 54129  1  0  0  0  0
 55 56  1  0  0  0  0
 55 57  1  0  0  0  0
 56130  1  0  0  0  0
 56131  1  0  0  0  0
 57132  1  0  0  0  0
 57133  1  0  0  0  0
 58 59  1  0  0  0  0
 58 64  1  0  0  0  0
 59 60  1  0  0  0  0
 59 62  1  0  0  0  0
 59134  1  6  0  0  0
 60 61  2  0  0  0  0
 60 65  1  0  0  0  0
 62 63  1  0  0  0  0
 62135  1  0  0  0  0
 62136  1  0  0  0  0
 63 64  1  0  0  0  0
 63137  1  0  0  0  0
 63138  1  0  0  0  0
 64139  1  0  0  0  0
 64140  1  0  0  0  0
 65141  1  0  0  0  0
 65142  1  0  0  0  0
M  CHG  1   1   1
M  END
