4hys_ligand
 OpenBabel08222323353D

 42 45  0  0  1  0  0  0  0  0999 V2000
   -2.1330   -2.2240   10.3770 N   0  0  0  0  0  0  0  0  0  0  0  0
   -2.8040   -1.1460   10.7660 C   0  0  0  0  0  0  0  0  0  0  0  0
   -2.5090   -0.5690   11.9330 N   0  0  0  0  0  0  0  0  0  0  0  0
   -1.1550   -2.7350   11.1330 C   0  0  0  0  0  0  0  0  0  0  0  0
   -0.8190   -2.1630   12.3390 C   0  0  0  0  0  0  0  0  0  0  0  0
   -1.5280   -1.0270   12.7180 C   0  0  0  0  0  0  0  0  0  0  0  0
   -1.2380   -0.4240   13.9400 N   0  0  0  0  0  0  0  0  0  0  0  0
   -3.8280   -0.6430    9.9570 N   0  0  0  0  0  0  0  0  0  0  0  0
   -4.8260    0.2840   10.5240 C   0  0  2  0  0  0  0  0  0  0  0  0
   -5.8390   -0.4900   11.3800 C   0  0  0  0  0  0  0  0  0  0  0  0
   -6.8740    0.4370   12.0280 C   0  0  0  0  0  0  0  0  0  0  0  0
   -7.5610    1.2990   10.9600 C   0  0  2  0  0  0  0  0  0  0  0  0
   -6.5400    2.0580   10.0820 C   0  0  0  0  0  0  0  0  0  0  0  0
   -5.5430    1.0890    9.4250 C   0  0  0  0  0  0  0  0  0  0  0  0
   -8.3840    2.2490   11.6370 O   0  0  0  0  0  0  0  0  0  0  0  0
   -0.2820   -0.1860   15.9160 C   0  0  0  0  0  0  0  0  0  0  0  0
   -0.3190   -0.9390   14.8590 N   0  0  0  0  0  0  0  0  0  0  0  0
   -1.2390    0.8980   15.7250 C   0  0  0  0  0  0  0  0  0  0  0  0
   -1.8210    0.7030   14.4610 C   0  0  0  0  0  0  0  0  0  0  0  0
   -2.7820    1.6050   13.9980 C   0  0  0  0  0  0  0  0  0  0  0  0
   -3.1470    2.6660   14.7970 C   0  0  0  0  0  0  0  0  0  0  0  0
   -2.5670    2.8530   16.0450 C   0  0  0  0  0  0  0  0  0  0  0  0
   -1.6220    1.9900   16.5180 C   0  0  0  0  0  0  0  0  0  0  0  0
   -0.6190   -3.6128   10.7907 H   0  0  0  0  0  0  0  0  0  0  0  0
   -0.0377   -2.5785   12.9651 H   0  0  0  0  0  0  0  0  0  0  0  0
   -3.8854   -0.9194    8.9664 H   0  0  0  0  0  0  0  0  0  0  0  0
   -4.2982    0.9962   11.1753 H   0  0  0  0  0  0  0  0  0  0  0  0
   -5.2970   -1.0258   12.1732 H   0  0  0  0  0  0  0  0  0  0  0  0
   -6.3635   -1.2149   10.7401 H   0  0  0  0  0  0  0  0  0  0  0  0
   -6.3701    1.0922   12.7538 H   0  0  0  0  0  0  0  0  0  0  0  0
   -7.6309   -0.1703   12.5459 H   0  0  0  0  0  0  0  0  0  0  0  0
   -8.1803    0.6565   10.3169 H   0  0  0  0  0  0  0  0  0  0  0  0
   -5.9863    2.7710   10.7105 H   0  0  0  0  0  0  0  0  0  0  0  0
   -7.0800    2.6052    9.2953 H   0  0  0  0  0  0  0  0  0  0  0  0
   -6.0829    0.4015    8.7573 H   0  0  0  0  0  0  0  0  0  0  0  0
   -4.8034    1.6593    8.8439 H   0  0  0  0  0  0  0  0  0  0  0  0
   -9.0148    1.7903   12.1793 H   0  0  0  0  0  0  0  0  0  0  0  0
    0.3507   -0.3368   16.7894 H   0  0  0  0  0  0  0  0  0  0  0  0
   -3.2348    1.4716   13.0222 H   0  0  0  0  0  0  0  0  0  0  0  0
   -3.8977    3.3651   14.4467 H   0  0  0  0  0  0  0  0  0  0  0  0
   -2.8699    3.6979   16.6528 H   0  0  0  0  0  0  0  0  0  0  0  0
   -1.1736    2.1459   17.4925 H   0  0  0  0  0  0  0  0  0  0  0  0
  1  2  2  0  0  0  0
  1  4  1  0  0  0  0
  2  3  1  0  0  0  0
  2  8  1  0  0  0  0
  3  6  2  0  0  0  0
  4  5  2  0  0  0  0
  4 24  1  0  0  0  0
  5  6  1  0  0  0  0
  5 25  1  0  0  0  0
  6  7  1  0  0  0  0
  7 17  1  0  0  0  0
  7 19  1  0  0  0  0
  8  9  1  0  0  0  0
  8 26  1  0  0  0  0
  9 10  1  0  0  0  0
  9 14  1  0  0  0  0
  9 27  1  1  0  0  0
 10 11  1  0  0  0  0
 10 28  1  0  0  0  0
 10 29  1  0  0  0  0
 11 12  1  0  0  0  0
 11 30  1  0  0  0  0
 11 31  1  0  0  0  0
 12 13  1  0  0  0  0
 12 15  1  0  0  0  0
 12 32  1  6  0  0  0
 13 14  1  0  0  0  0
 13 33  1  0  0  0  0
 13 34  1  0  0  0  0
 14 35  1  0  0  0  0
 14 36  1  0  0  0  0
 15 37  1  0  0  0  0
 16 18  1  0  0  0  0
 16 38  1  0  0  0  0
 17 16  2  0  0  0  0
 18 19  2  0  0  0  0
 18 23  1  0  0  0  0
 19 20  1  0  0  0  0
 20 21  2  0  0  0  0
 20 39  1  0  0  0  0
 21 22  1  0  0  0  0
 21 40  1  0  0  0  0
 22 23  2  0  0  0  0
 22 41  1  0  0  0  0
 23 42  1  0  0  0  0
M  END
