4hyu_ligand
 OpenBabel08222323353D

 58 61  0  0  1  0  0  0  0  0999 V2000
   -3.8040   -0.8140    9.1230 N   0  0  0  0  0  0  0  0  0  0  0  0
   -2.7750   -1.3060    9.9070 C   0  0  0  0  0  0  0  0  0  0  0  0
   -2.0520   -2.3430    9.4880 N   0  0  0  0  0  0  0  0  0  0  0  0
   -1.0570   -2.8240   10.2380 C   0  0  0  0  0  0  0  0  0  0  0  0
   -0.7770   -2.2470   11.4680 C   0  0  0  0  0  0  0  0  0  0  0  0
   -1.5440   -1.1470   11.8740 C   0  0  0  0  0  0  0  0  0  0  0  0
   -2.5240   -0.7270   11.0730 N   0  0  0  0  0  0  0  0  0  0  0  0
   -1.3040   -0.5300   13.1060 N   0  0  0  0  0  0  0  0  0  0  0  0
   -0.4620   -1.0720   14.0760 N   0  0  0  0  0  0  0  0  0  0  0  0
   -0.4190   -0.3150   15.1230 C   0  0  0  0  0  0  0  0  0  0  0  0
   -1.8460    0.6420   13.6060 C   0  0  0  0  0  0  0  0  0  0  0  0
   -1.3020    0.8140   14.8920 C   0  0  0  0  0  0  0  0  0  0  0  0
   -1.6380    1.9200   15.6910 C   0  0  0  0  0  0  0  0  0  0  0  0
   -2.5420    2.8550   15.2110 C   0  0  0  0  0  0  0  0  0  0  0  0
   -3.0790    2.6920   13.9270 C   0  0  0  0  0  0  0  0  0  0  0  0
   -2.7410    1.6030   13.1360 C   0  0  0  0  0  0  0  0  0  0  0  0
   -4.6630    0.2670    9.6270 C   0  0  2  0  0  0  0  0  0  0  0  0
   -5.7950   -0.3210   10.4870 C   0  0  0  0  0  0  0  0  0  0  0  0
   -6.6570    0.8140   11.0500 C   0  0  0  0  0  0  0  0  0  0  0  0
   -7.3030    1.5730    9.8860 C   0  0  2  0  0  0  0  0  0  0  0  0
   -6.2190    2.1600    8.9640 C   0  0  0  0  0  0  0  0  0  0  0  0
   -5.2600    1.0640    8.4600 C   0  0  0  0  0  0  0  0  0  0  0  0
   -8.1050    2.6200   10.4300 O   0  0  0  0  0  0  0  0  0  0  0  0
   -1.0700    1.9530   16.9270 O   0  0  0  0  0  0  0  0  0  0  0  0
   -0.7940    3.2480   17.4620 C   0  0  0  0  0  0  0  0  0  0  0  0
    0.3710    3.0930   18.4540 C   0  0  0  0  0  0  0  0  0  0  0  0
   -0.0210    2.0970   19.5430 C   0  0  0  0  0  0  0  0  0  0  0  0
    1.2970    1.8990   20.7850 S   0  0  0  0  0  0  0  0  0  0  0  0
    0.4460    0.6790   21.8270 C   0  0  0  0  0  0  0  0  0  0  0  0
    2.4540    1.2920   20.2180 O   0  0  0  0  0  0  0  0  0  0  0  0
    1.4440    3.1060   21.5260 O   0  0  0  0  0  0  0  0  0  0  0  0
   -3.9681   -1.2060    8.1848 H   0  0  0  0  0  0  0  0  0  0  0  0
   -0.4691   -3.6640    9.8861 H   0  0  0  0  0  0  0  0  0  0  0  0
    0.0141   -2.6368   12.0983 H   0  0  0  0  0  0  0  0  0  0  0  0
    0.1741   -0.4926   16.0189 H   0  0  0  0  0  0  0  0  0  0  0  0
   -2.8302    3.7027   15.8221 H   0  0  0  0  0  0  0  0  0  0  0  0
   -3.7726    3.4317   13.5438 H   0  0  0  0  0  0  0  0  0  0  0  0
   -3.1747    1.4987   12.1480 H   0  0  0  0  0  0  0  0  0  0  0  0
   -4.0565    0.9435   10.2471 H   0  0  0  0  0  0  0  0  0  0  0  0
   -5.3618   -0.8978   11.3174 H   0  0  0  0  0  0  0  0  0  0  0  0
   -6.4193   -0.9820    9.8679 H   0  0  0  0  0  0  0  0  0  0  0  0
   -6.0270    1.5010   11.6340 H   0  0  0  0  0  0  0  0  0  0  0  0
   -7.4412    0.3953   11.6979 H   0  0  0  0  0  0  0  0  0  0  0  0
   -7.9371    0.8866    9.3057 H   0  0  0  0  0  0  0  0  0  0  0  0
   -5.6421    2.9119    9.5224 H   0  0  0  0  0  0  0  0  0  0  0  0
   -6.7037    2.6374    8.0996 H   0  0  0  0  0  0  0  0  0  0  0  0
   -5.8141    0.3773    7.8032 H   0  0  0  0  0  0  0  0  0  0  0  0
   -4.4437    1.5351    7.8929 H   0  0  0  0  0  0  0  0  0  0  0  0
   -8.7697    2.2464   10.9966 H   0  0  0  0  0  0  0  0  0  0  0  0
   -1.6817    3.6379   17.9816 H   0  0  0  0  0  0  0  0  0  0  0  0
   -0.5105    3.9372   16.6529 H   0  0  0  0  0  0  0  0  0  0  0  0
    0.5959    4.0677   18.9116 H   0  0  0  0  0  0  0  0  0  0  0  0
    1.2600    2.7240   17.9216 H   0  0  0  0  0  0  0  0  0  0  0  0
   -0.2210    1.1207   19.0774 H   0  0  0  0  0  0  0  0  0  0  0  0
   -0.9313    2.4575   20.0443 H   0  0  0  0  0  0  0  0  0  0  0  0
    1.0918    0.4070   22.6749 H   0  0  0  0  0  0  0  0  0  0  0  0
    0.2236   -0.2194   21.2326 H   0  0  0  0  0  0  0  0  0  0  0  0
   -0.4927    1.1105   22.2047 H   0  0  0  0  0  0  0  0  0  0  0  0
  1  2  1  0  0  0  0
  1 17  1  0  0  0  0
  1 32  1  0  0  0  0
  2  3  2  0  0  0  0
  2  7  1  0  0  0  0
  3  4  1  0  0  0  0
  4  5  2  0  0  0  0
  4 33  1  0  0  0  0
  5  6  1  0  0  0  0
  5 34  1  0  0  0  0
  6  7  2  0  0  0  0
  6  8  1  0  0  0  0
  8  9  1  0  0  0  0
  8 11  1  0  0  0  0
  9 10  2  0  0  0  0
 10 12  1  0  0  0  0
 10 35  1  0  0  0  0
 11 12  2  0  0  0  0
 11 16  1  0  0  0  0
 12 13  1  0  0  0  0
 13 14  2  0  0  0  0
 13 24  1  0  0  0  0
 14 15  1  0  0  0  0
 14 36  1  0  0  0  0
 15 16  2  0  0  0  0
 15 37  1  0  0  0  0
 16 38  1  0  0  0  0
 17 18  1  0  0  0  0
 17 22  1  0  0  0  0
 17 39  1  1  0  0  0
 18 19  1  0  0  0  0
 18 40  1  0  0  0  0
 18 41  1  0  0  0  0
 19 20  1  0  0  0  0
 19 42  1  0  0  0  0
 19 43  1  0  0  0  0
 20 21  1  0  0  0  0
 20 23  1  0  0  0  0
 20 44  1  6  0  0  0
 21 22  1  0  0  0  0
 21 45  1  0  0  0  0
 21 46  1  0  0  0  0
 22 47  1  0  0  0  0
 22 48  1  0  0  0  0
 23 49  1  0  0  0  0
 24 25  1  0  0  0  0
 25 26  1  0  0  0  0
 25 50  1  0  0  0  0
 25 51  1  0  0  0  0
 26 27  1  0  0  0  0
 26 52  1  0  0  0  0
 26 53  1  0  0  0  0
 27 28  1  0  0  0  0
 27 54  1  0  0  0  0
 27 55  1  0  0  0  0
 28 29  1  0  0  0  0
 28 30  2  0  0  0  0
 28 31  2  0  0  0  0
 29 56  1  0  0  0  0
 29 57  1  0  0  0  0
 29 58  1  0  0  0  0
M  END
