4hzx_ligand
 OpenBabel08222323353D

 46 46  0  0  1  0  0  0  0  0999 V2000
   30.8180    4.2460  -37.8990 C   0  0  0  0  0  0  0  0  0  0  0  0
   29.9260    3.4960  -38.2630 O   0  5  0  0  0  0  0  0  0  0  0  0
   32.1410    3.8620  -38.0300 O   0  0  0  0  0  0  0  0  0  0  0  0
   30.4790    5.5880  -37.3180 C   0  0  1  0  0  0  0  0  0  0  0  0
   29.0310    6.1310  -37.3600 C   0  0  0  0  0  0  0  0  0  0  0  0
   28.5890    6.9560  -36.1790 C   0  0  1  0  0  0  0  0  0  0  0  0
   29.5840    7.9800  -35.6240 C   0  0  1  0  0  0  0  0  0  0  0  0
   29.1640    8.9350  -34.6180 N   0  0  0  0  0  0  0  0  0  0  0  0
   28.6460   10.2110  -35.0130 C   0  0  0  0  0  0  0  0  0  0  0  0
   28.5560   10.4920  -36.1960 O   0  0  0  0  0  0  0  0  0  0  0  0
   28.2090   11.2000  -33.9730 C   0  0  0  0  0  0  0  0  0  0  0  0
   31.0930    7.6930  -35.8020 C   0  0  1  0  0  0  0  0  0  0  0  0
   31.5180    6.3300  -36.4270 C   0  0  0  0  0  0  0  0  0  0  0  0
   31.9990    8.7520  -35.7940 O   0  0  0  0  0  0  0  0  0  0  0  0
   32.5840    9.1580  -34.5870 C   0  0  0  0  0  0  0  0  0  0  0  0
   33.3690    8.0760  -33.9020 C   0  0  0  0  0  0  0  0  0  0  0  0
   33.3160   10.4660  -34.6810 C   0  0  0  0  0  0  0  0  0  0  0  0
   32.6060   11.6150  -35.3340 C   0  0  0  0  0  0  0  0  0  0  0  0
   34.5270    7.4860  -34.6370 C   0  0  0  0  0  0  0  0  0  0  0  0
   27.1760    7.1550  -35.9550 N   0  3  0  0  0  0  0  0  0  0  0  0
   30.7757    6.1242  -38.2314 H   0  0  0  0  0  0  0  0  0  0  0  0
   28.3526    5.2687  -37.4382 H   0  0  0  0  0  0  0  0  0  0  0  0
   28.9343    6.7564  -38.2597 H   0  0  0  0  0  0  0  0  0  0  0  0
   28.7382    6.1860  -35.4077 H   0  0  0  0  0  0  0  0  0  0  0  0
   29.5024    8.6784  -36.4699 H   0  0  0  0  0  0  0  0  0  0  0  0
   29.2358    8.7032  -33.6479 H   0  0  0  0  0  0  0  0  0  0  0  0
   27.8439   12.1131  -34.4659 H   0  0  0  0  0  0  0  0  0  0  0  0
   29.0609   11.4496  -33.3234 H   0  0  0  0  0  0  0  0  0  0  0  0
   27.4018   10.7625  -33.3672 H   0  0  0  0  0  0  0  0  0  0  0  0
   31.2708    7.3949  -34.7582 H   0  0  0  0  0  0  0  0  0  0  0  0
   32.4085    6.5155  -37.0455 H   0  0  0  0  0  0  0  0  0  0  0  0
   31.7810    5.6562  -35.5983 H   0  0  0  0  0  0  0  0  0  0  0  0
   31.7354    9.3578  -33.9162 H   0  0  0  0  0  0  0  0  0  0  0  0
   32.6709    7.2562  -33.6769 H   0  0  0  0  0  0  0  0  0  0  0  0
   33.7564    8.4962  -32.9622 H   0  0  0  0  0  0  0  0  0  0  0  0
   34.2407   10.2854  -35.2487 H   0  0  0  0  0  0  0  0  0  0  0  0
   33.5693   10.7755  -33.6563 H   0  0  0  0  0  0  0  0  0  0  0  0
   33.2598   12.4996  -35.3307 H   0  0  0  0  0  0  0  0  0  0  0  0
   31.6832   11.8390  -34.7789 H   0  0  0  0  0  0  0  0  0  0  0  0
   32.3545   11.3489  -36.3713 H   0  0  0  0  0  0  0  0  0  0  0  0
   35.0007    6.7126  -34.0146 H   0  0  0  0  0  0  0  0  0  0  0  0
   35.2595    8.2753  -34.8615 H   0  0  0  0  0  0  0  0  0  0  0  0
   34.1740    7.0353  -35.5763 H   0  0  0  0  0  0  0  0  0  0  0  0
   26.6591    6.4008  -36.3794 H   0  0  0  0  0  0  0  0  0  0  0  0
   26.8907    8.0304  -36.3653 H   0  0  0  0  0  0  0  0  0  0  0  0
   26.9921    7.1725  -34.9641 H   0  0  0  0  0  0  0  0  0  0  0  0
  1  2  1  0  0  0  0
  1  3  2  0  0  0  0
  1  4  1  0  0  0  0
  4  5  1  0  0  0  0
  4 13  1  0  0  0  0
  4 21  1  6  0  0  0
  5  6  1  0  0  0  0
  5 22  1  0  0  0  0
  5 23  1  0  0  0  0
  6  7  1  0  0  0  0
  6 20  1  0  0  0  0
  6 24  1  1  0  0  0
  7  8  1  0  0  0  0
  7 12  1  0  0  0  0
  7 25  1  6  0  0  0
  8  9  1  0  0  0  0
  8 26  1  0  0  0  0
  9 10  2  0  0  0  0
  9 11  1  0  0  0  0
 11 27  1  0  0  0  0
 11 28  1  0  0  0  0
 11 29  1  0  0  0  0
 12 13  1  0  0  0  0
 12 14  1  0  0  0  0
 12 30  1  1  0  0  0
 13 31  1  0  0  0  0
 13 32  1  0  0  0  0
 14 15  1  0  0  0  0
 15 16  1  0  0  0  0
 15 17  1  0  0  0  0
 15 33  1  0  0  0  0
 16 19  1  0  0  0  0
 16 34  1  0  0  0  0
 16 35  1  0  0  0  0
 17 18  1  0  0  0  0
 17 36  1  0  0  0  0
 17 37  1  0  0  0  0
 18 38  1  0  0  0  0
 18 39  1  0  0  0  0
 18 40  1  0  0  0  0
 19 41  1  0  0  0  0
 19 42  1  0  0  0  0
 19 43  1  0  0  0  0
 20 44  1  0  0  0  0
 20 45  1  0  0  0  0
 20 46  1  0  0  0  0
M  CHG  2   2  -1  20   1
M  END
