4i31_ligand
 OpenBabel08222323353D

194193  0  0  1  0  0  0  0  0999 V2000
   75.7520   -3.7600   14.7350 N   0  3  0  0  0  0  0  0  0  0  0  0
   76.0760   -4.0660   16.1180 C   0  0  0  0  0  0  0  0  0  0  0  0
   76.9160   -2.9760   16.7530 C   0  0  0  0  0  0  0  0  0  0  0  0
   77.2010   -3.0060   17.9540 O   0  0  0  0  0  0  0  0  0  0  0  0
   77.3270   -2.0110   15.9400 N   0  0  0  0  0  0  0  0  0  0  0  0
   78.1020   -0.8900   16.4380 C   0  0  0  0  0  0  0  0  0  0  0  0
   77.2110    0.1600   17.0750 C   0  0  0  0  0  0  0  0  0  0  0  0
   75.9840    0.0900   16.9590 O   0  0  0  0  0  0  0  0  0  0  0  0
   77.8300    1.1200   17.7580 N   0  0  0  0  0  0  0  0  0  0  0  0
   77.1160    2.2470   18.3360 C   0  0  2  0  0  0  0  0  0  0  0  0
   76.6920    3.2110   17.2440 C   0  0  0  0  0  0  0  0  0  0  0  0
   77.2790    3.2400   16.1630 O   0  0  0  0  0  0  0  0  0  0  0  0
   77.9990    3.0110   19.3300 C   0  0  0  0  0  0  0  0  0  0  0  0
   78.2890    2.2460   20.4840 O   0  0  0  0  0  0  0  0  0  0  0  0
   75.6620    3.9970   17.5320 N   0  0  0  0  0  0  0  0  0  0  0  0
   75.3410    5.1400   16.6880 C   0  0  2  0  0  0  0  0  0  0  0  0
   76.3990    6.2030   16.9780 C   0  0  0  0  0  0  0  0  0  0  0  0
   76.8460    6.3460   18.1240 O   0  0  0  0  0  0  0  0  0  0  0  0
   73.9540    5.7050   17.0140 C   0  0  0  0  0  0  0  0  0  0  0  0
   73.6690    6.9660   16.1640 C   0  0  0  0  0  0  0  0  0  0  0  0
   72.8960    4.6250   16.7980 C   0  0  0  0  0  0  0  0  0  0  0  0
   76.7850    6.9490   15.9500 N   0  0  0  0  0  0  0  0  0  0  0  0
   77.8870    7.9010   16.0850 C   0  0  2  0  0  0  0  0  0  0  0  0
   77.4820    9.3070   15.6300 C   0  0  0  0  0  0  0  0  0  0  0  0
   76.9260    9.4700   14.5520 O   0  0  0  0  0  0  0  0  0  0  0  0
   79.0920    7.4760   15.2200 C   0  0  0  0  0  0  0  0  0  0  0  0
   80.2730    8.4040   15.4850 C   0  0  0  0  0  0  0  0  0  0  0  0
   79.4800    6.0100   15.4780 C   0  0  0  0  0  0  0  0  0  0  0  0
   77.7920   10.3190   16.4270 N   0  0  0  0  0  0  0  0  0  0  0  0
   77.5670   11.6850   15.9830 C   0  0  2  0  0  0  0  0  0  0  0  0
   78.6740   12.0610   15.0080 C   0  0  0  0  0  0  0  0  0  0  0  0
   79.8690   12.0700   15.3660 O   0  0  0  0  0  0  0  0  0  0  0  0
   77.6480   12.6440   17.1640 C   0  0  2  0  0  0  0  0  0  0  0  0
   76.5320   12.3420   18.1660 C   0  0  0  0  0  0  0  0  0  0  0  0
   77.6180   14.1020   16.6690 C   0  0  0  0  0  0  0  0  0  0  0  0
   76.6210   13.1630   19.4360 C   0  0  0  0  0  0  0  0  0  0  0  0
   78.2860   12.3090   13.7600 N   0  0  0  0  0  0  0  0  0  0  0  0
   79.2230   12.7170   12.7170 C   0  0  2  0  0  0  0  0  0  0  0  0
   79.2070   14.2150   12.3330 C   0  0  0  0  0  0  0  0  0  0  0  0
   79.9610   14.6480   11.4690 O   0  0  0  0  0  0  0  0  0  0  0  0
   79.0870   11.8350   11.4800 C   0  0  0  0  0  0  0  0  0  0  0  0
   79.2320   10.3650   11.8970 C   0  0  0  0  0  0  0  0  0  0  0  0
   77.7780   12.0870   10.7450 C   0  0  0  0  0  0  0  0  0  0  0  0
   78.3190   14.9800   12.9540 N   0  0  0  0  0  0  0  0  0  0  0  0
   78.1440   16.3810   12.6140 C   0  0  0  0  0  0  0  0  0  0  0  0
   77.0810   16.9920   13.5000 C   0  0  0  0  0  0  0  0  0  0  0  0
   76.4780   16.3090   14.3260 O   0  0  0  0  0  0  0  0  0  0  0  0
   76.8670   18.2940   13.3580 N   0  0  0  0  0  0  0  0  0  0  0  0
   75.8100   18.9430   14.0920 C   0  0  2  0  0  0  0  0  0  0  0  0
   75.2460   20.1040   13.3070 C   0  0  0  0  0  0  0  0  0  0  0  0
   75.8570   20.5980   12.3630 O   0  0  0  0  0  0  0  0  0  0  0  0
   76.2630   19.4210   15.4800 C   0  0  0  0  0  0  0  0  0  0  0  0
   77.2360   20.5720   15.4770 C   0  0  0  0  0  0  0  0  0  0  0  0
   78.6220   20.0590   15.2570 C   0  0  0  0  0  0  0  0  0  0  0  0
   79.6180   21.0620   15.5890 N   0  0  0  0  0  0  0  0  0  0  0  0
   80.4650   20.9850   16.6120 C   0  0  0  0  0  3  0  0  0  0  0  0
   80.4560   19.9420   17.4370 N   0  0  0  0  0  0  0  0  0  0  0  0
   81.3240   21.9650   16.8050 N   0  0  0  0  0  0  0  0  0  0  0  0
   74.0650   20.5300   13.7120 N   0  0  0  0  0  0  0  0  0  0  0  0
   73.3900   21.6480   13.0760 C   0  0  2  0  0  0  0  0  0  0  0  0
   73.1260   22.6750   14.1640 C   0  0  0  0  0  0  0  0  0  0  0  0
   72.6340   22.3320   15.2420 O   0  0  0  0  0  0  0  0  0  0  0  0
   72.0920   21.1820   12.3800 C   0  0  2  0  0  0  0  0  0  0  0  0
   72.4360   20.4070   11.1030 C   0  0  0  0  0  0  0  0  0  0  0  0
   71.1570   22.3700   12.0850 C   0  0  0  0  0  0  0  0  0  0  0  0
   71.2690   19.6160   10.5570 C   0  0  0  0  0  0  0  0  0  0  0  0
   73.5230   23.9150   13.8990 N   0  0  0  0  0  0  0  0  0  0  0  0
   73.3990   25.0070   14.8570 C   0  0  2  0  0  0  0  0  0  0  0  0
   72.2690   25.9230   14.4040 C   0  0  0  0  0  0  0  0  0  0  0  0
   72.2870   26.4060   13.2670 O   0  0  0  0  0  0  0  0  0  0  0  0
   74.6660   25.8710   14.8750 C   0  0  2  0  0  0  0  0  0  0  0  0
   75.9170   25.0260   15.1500 C   0  0  0  0  0  0  0  0  0  0  0  0
   74.5220   27.0200   15.8880 C   0  0  0  0  0  0  0  0  0  0  0  0
   75.9930   24.5030   16.5440 C   0  0  0  0  0  0  0  0  0  0  0  0
   71.3100   26.1660   15.2920 N   0  0  0  0  0  0  0  0  0  0  0  0
   70.1240   26.9660   14.9720 C   0  0  2  0  0  0  0  0  0  0  0  0
   70.2610   28.4030   15.4640 C   0  0  0  0  0  0  0  0  0  0  0  0
   70.8030   28.6380   16.5450 O   0  0  0  0  0  0  0  0  0  0  0  0
   68.8830   26.3500   15.6080 C   0  0  0  0  0  0  0  0  0  0  0  0
   68.5490   24.9220   15.2080 C   0  0  0  0  0  0  0  0  0  0  0  0
   67.2240   24.4980   15.8240 C   0  0  0  0  0  0  0  0  0  0  0  0
   68.5100   24.7970   13.7030 C   0  0  0  0  0  0  0  0  0  0  0  0
   69.7800   29.3590   14.6680 N   0  0  0  0  0  0  0  0  0  0  0  0
   69.7930   30.7670   15.0670 C   0  0  2  0  0  0  0  0  0  0  0  0
   68.3870   31.3510   15.0080 C   0  0  0  0  0  0  0  0  0  0  0  0
   67.9419   32.0646   15.9462 O   0  5  0  0  0  0  0  0  0  0  0  0
   70.7320   31.5790   14.1760 C   0  0  0  0  0  0  0  0  0  0  0  0
   70.8530   32.9070   14.6500 O   0  0  0  0  0  0  0  0  0  0  0  0
   67.6590   31.1170   14.0066 O   0  0  0  0  0  0  0  0  0  0  0  0
   75.1945   -4.5052   14.3477 H   0  0  0  0  0  0  0  0  0  0  0  0
   76.6032   -3.6660   14.2033 H   0  0  0  0  0  0  0  0  0  0  0  0
   75.2334   -2.8966   14.6945 H   0  0  0  0  0  0  0  0  0  0  0  0
   76.6359   -5.0123   16.1517 H   0  0  0  0  0  0  0  0  0  0  0  0
   75.1411   -4.1726   16.6877 H   0  0  0  0  0  0  0  0  0  0  0  0
   77.0987   -2.0572   14.9675 H   0  0  0  0  0  0  0  0  0  0  0  0
   78.6502   -0.4338   15.6005 H   0  0  0  0  0  0  0  0  0  0  0  0
   78.8177   -1.2553   17.1891 H   0  0  0  0  0  0  0  0  0  0  0  0
   78.8212    1.0642   17.8779 H   0  0  0  0  0  0  0  0  0  0  0  0
   76.2241    1.8714   18.8589 H   0  0  0  0  0  0  0  0  0  0  0  0
   77.4759    3.9290   19.6358 H   0  0  0  0  0  0  0  0  0  0  0  0
   78.9443    3.2756   18.8336 H   0  0  0  0  0  0  0  0  0  0  0  0
   78.7469    1.4533   20.2302 H   0  0  0  0  0  0  0  0  0  0  0  0
   75.1007    3.8026   18.3365 H   0  0  0  0  0  0  0  0  0  0  0  0
   75.3750    4.8451   15.6288 H   0  0  0  0  0  0  0  0  0  0  0  0
   73.9365    5.9970   18.0744 H   0  0  0  0  0  0  0  0  0  0  0  0
   72.6709    7.3569   16.4112 H   0  0  0  0  0  0  0  0  0  0  0  0
   73.7063    6.7046   15.0962 H   0  0  0  0  0  0  0  0  0  0  0  0
   74.4271    7.7331   16.3804 H   0  0  0  0  0  0  0  0  0  0  0  0
   73.1348    3.7485   17.4183 H   0  0  0  0  0  0  0  0  0  0  0  0
   72.8828    4.3313   15.7380 H   0  0  0  0  0  0  0  0  0  0  0  0
   71.9084    5.0171   17.0822 H   0  0  0  0  0  0  0  0  0  0  0  0
   76.3159    6.8588   15.0715 H   0  0  0  0  0  0  0  0  0  0  0  0
   78.1901    7.9354   17.1419 H   0  0  0  0  0  0  0  0  0  0  0  0
   78.8069    7.5717   14.1619 H   0  0  0  0  0  0  0  0  0  0  0  0
   81.1280    8.0954   14.8655 H   0  0  0  0  0  0  0  0  0  0  0  0
   80.5515    8.3488   16.5477 H   0  0  0  0  0  0  0  0  0  0  0  0
   79.9914    9.4370   15.2329 H   0  0  0  0  0  0  0  0  0  0  0  0
   78.6138    5.3613   15.2806 H   0  0  0  0  0  0  0  0  0  0  0  0
   79.7946    5.8928   16.5255 H   0  0  0  0  0  0  0  0  0  0  0  0
   80.3089    5.7275   14.8124 H   0  0  0  0  0  0  0  0  0  0  0  0
   78.1799   10.1436   17.3319 H   0  0  0  0  0  0  0  0  0  0  0  0
   76.5830   11.7648   15.4979 H   0  0  0  0  0  0  0  0  0  0  0  0
   78.6095   12.4823   17.6734 H   0  0  0  0  0  0  0  0  0  0  0  0
   76.5852   11.2769   18.4357 H   0  0  0  0  0  0  0  0  0  0  0  0
   75.5655   12.5504   17.6839 H   0  0  0  0  0  0  0  0  0  0  0  0
   78.4383   14.2634   15.9541 H   0  0  0  0  0  0  0  0  0  0  0  0
   77.7384   14.7824   17.5249 H   0  0  0  0  0  0  0  0  0  0  0  0
   76.6560   14.3016   16.1744 H   0  0  0  0  0  0  0  0  0  0  0  0
   75.7909   12.8937   20.1056 H   0  0  0  0  0  0  0  0  0  0  0  0
   76.5585   14.2325   19.1864 H   0  0  0  0  0  0  0  0  0  0  0  0
   77.5781   12.9590   19.9382 H   0  0  0  0  0  0  0  0  0  0  0  0
   77.3181   12.2126   13.5278 H   0  0  0  0  0  0  0  0  0  0  0  0
   80.2250   12.5278   13.1295 H   0  0  0  0  0  0  0  0  0  0  0  0
   79.9089   12.0799   10.7911 H   0  0  0  0  0  0  0  0  0  0  0  0
   79.1352    9.7211   11.0104 H   0  0  0  0  0  0  0  0  0  0  0  0
   78.4455   10.1104   12.6227 H   0  0  0  0  0  0  0  0  0  0  0  0
   80.2192   10.2099   12.3567 H   0  0  0  0  0  0  0  0  0  0  0  0
   77.7135   13.1487   10.4646 H   0  0  0  0  0  0  0  0  0  0  0  0
   76.9336   11.8291   11.4010 H   0  0  0  0  0  0  0  0  0  0  0  0
   77.7411   11.4654    9.8382 H   0  0  0  0  0  0  0  0  0  0  0  0
   77.7543   14.5809   13.6764 H   0  0  0  0  0  0  0  0  0  0  0  0
   77.8358   16.4661   11.5615 H   0  0  0  0  0  0  0  0  0  0  0  0
   79.0944   16.9147   12.7621 H   0  0  0  0  0  0  0  0  0  0  0  0
   77.4423   18.8278   12.7383 H   0  0  0  0  0  0  0  0  0  0  0  0
   75.0061   18.2064   14.2373 H   0  0  0  0  0  0  0  0  0  0  0  0
   76.7407   18.5731   15.9926 H   0  0  0  0  0  0  0  0  0  0  0  0
   75.3695   19.7324   16.0409 H   0  0  0  0  0  0  0  0  0  0  0  0
   77.1884   21.0936   16.4443 H   0  0  0  0  0  0  0  0  0  0  0  0
   76.9726   21.2714   14.6699 H   0  0  0  0  0  0  0  0  0  0  0  0
   78.7359   19.7782   14.1996 H   0  0  0  0  0  0  0  0  0  0  0  0
   78.7807   19.1739   15.8906 H   0  0  0  0  0  0  0  0  0  0  0  0
   79.6729   21.8960   14.9871 H   0  0  0  0  0  0  0  0  0  0  0  0
   81.1202   19.9015   18.2232 H   0  0  0  0  0  0  0  0  0  0  0  0
   79.7849   19.1747   17.2897 H   0  0  0  0  0  0  0  0  0  0  0  0
   81.3337   22.7743   16.1679 H   0  0  0  0  0  0  0  0  0  0  0  0
   81.9859   21.9219   17.5930 H   0  0  0  0  0  0  0  0  0  0  0  0
   73.6208   20.0692   14.4804 H   0  0  0  0  0  0  0  0  0  0  0  0
   74.0505   22.0901   12.3156 H   0  0  0  0  0  0  0  0  0  0  0  0
   71.5637   20.4996   13.0621 H   0  0  0  0  0  0  0  0  0  0  0  0
   73.2571   19.7101   11.3268 H   0  0  0  0  0  0  0  0  0  0  0  0
   72.7626   21.1241   10.3355 H   0  0  0  0  0  0  0  0  0  0  0  0
   70.9324   22.9012   13.0217 H   0  0  0  0  0  0  0  0  0  0  0  0
   70.2217   21.9990   11.6406 H   0  0  0  0  0  0  0  0  0  0  0  0
   71.6492   23.0583   11.3822 H   0  0  0  0  0  0  0  0  0  0  0  0
   71.5803   19.0855    9.6450 H   0  0  0  0  0  0  0  0  0  0  0  0
   70.4415   20.3005   10.3186 H   0  0  0  0  0  0  0  0  0  0  0  0
   70.9361   18.8865   11.3100 H   0  0  0  0  0  0  0  0  0  0  0  0
   73.9243   24.1076   13.0035 H   0  0  0  0  0  0  0  0  0  0  0  0
   73.1975   24.6031   15.8601 H   0  0  0  0  0  0  0  0  0  0  0  0
   74.7812   26.3181   13.8766 H   0  0  0  0  0  0  0  0  0  0  0  0
   76.8044   25.6488   14.9640 H   0  0  0  0  0  0  0  0  0  0  0  0
   75.9175   24.1710   14.4580 H   0  0  0  0  0  0  0  0  0  0  0  0
   73.6164   27.6004   15.6578 H   0  0  0  0  0  0  0  0  0  0  0  0
   75.4031   27.6756   15.8265 H   0  0  0  0  0  0  0  0  0  0  0  0
   74.4435   26.6055   16.9039 H   0  0  0  0  0  0  0  0  0  0  0  0
   76.9120   23.9104   16.6637 H   0  0  0  0  0  0  0  0  0  0  0  0
   75.1181   23.8674   16.7454 H   0  0  0  0  0  0  0  0  0  0  0  0
   76.0051   25.3452   17.2515 H   0  0  0  0  0  0  0  0  0  0  0  0
   71.4011   25.7886   16.2136 H   0  0  0  0  0  0  0  0  0  0  0  0
   69.9981   26.9777   13.8793 H   0  0  0  0  0  0  0  0  0  0  0  0
   68.0228   26.9811   15.3401 H   0  0  0  0  0  0  0  0  0  0  0  0
   69.0243   26.3663   16.6988 H   0  0  0  0  0  0  0  0  0  0  0  0
   69.3379   24.2580   15.5911 H   0  0  0  0  0  0  0  0  0  0  0  0
   66.9955   23.4640   15.5263 H   0  0  0  0  0  0  0  0  0  0  0  0
   66.4249   25.1663   15.4708 H   0  0  0  0  0  0  0  0  0  0  0  0
   67.2936   24.5571   16.9202 H   0  0  0  0  0  0  0  0  0  0  0  0
   69.4780   25.1091   13.2840 H   0  0  0  0  0  0  0  0  0  0  0  0
   67.7126   25.4400   13.3022 H   0  0  0  0  0  0  0  0  0  0  0  0
   68.3111   23.7510   13.4270 H   0  0  0  0  0  0  0  0  0  0  0  0
   69.4014   29.1077   13.7772 H   0  0  0  0  0  0  0  0  0  0  0  0
   70.1552   30.8300   16.1037 H   0  0  0  0  0  0  0  0  0  0  0  0
   70.3311   31.5971   13.1518 H   0  0  0  0  0  0  0  0  0  0  0  0
   71.7249   31.1056   14.1729 H   0  0  0  0  0  0  0  0  0  0  0  0
   71.4400   33.3924   14.0823 H   0  0  0  0  0  0  0  0  0  0  0  0
  1  2  1  0  0  0  0
  1 90  1  0  0  0  0
  1 91  1  0  0  0  0
  1 92  1  0  0  0  0
  2  3  1  0  0  0  0
  2 93  1  0  0  0  0
  2 94  1  0  0  0  0
  3  4  2  0  0  0  0
  3  5  1  0  0  0  0
  5  6  1  0  0  0  0
  5 95  1  0  0  0  0
  6  7  1  0  0  0  0
  6 96  1  0  0  0  0
  6 97  1  0  0  0  0
  7  8  2  0  0  0  0
  7  9  1  0  0  0  0
  9 10  1  0  0  0  0
  9 98  1  0  0  0  0
 10 11  1  0  0  0  0
 10 13  1  0  0  0  0
 10 99  1  1  0  0  0
 11 12  2  0  0  0  0
 11 15  1  0  0  0  0
 13 14  1  0  0  0  0
 13100  1  0  0  0  0
 13101  1  0  0  0  0
 14102  1  0  0  0  0
 15 16  1  0  0  0  0
 15103  1  0  0  0  0
 16 17  1  0  0  0  0
 16 19  1  0  0  0  0
 16104  1  6  0  0  0
 17 18  2  0  0  0  0
 17 22  1  0  0  0  0
 19 20  1  0  0  0  0
 19 21  1  0  0  0  0
 19105  1  0  0  0  0
 20106  1  0  0  0  0
 20107  1  0  0  0  0
 20108  1  0  0  0  0
 21109  1  0  0  0  0
 21110  1  0  0  0  0
 21111  1  0  0  0  0
 22 23  1  0  0  0  0
 22112  1  0  0  0  0
 23 24  1  0  0  0  0
 23 26  1  0  0  0  0
 23113  1  1  0  0  0
 24 25  2  0  0  0  0
 24 29  1  0  0  0  0
 26 27  1  0  0  0  0
 26 28  1  0  0  0  0
 26114  1  0  0  0  0
 27115  1  0  0  0  0
 27116  1  0  0  0  0
 27117  1  0  0  0  0
 28118  1  0  0  0  0
 28119  1  0  0  0  0
 28120  1  0  0  0  0
 29 30  1  0  0  0  0
 29121  1  0  0  0  0
 30 31  1  0  0  0  0
 30 33  1  0  0  0  0
 30122  1  6  0  0  0
 31 32  2  0  0  0  0
 31 37  1  0  0  0  0
 33 34  1  0  0  0  0
 33 35  1  0  0  0  0
 33123  1  1  0  0  0
 34 36  1  0  0  0  0
 34124  1  0  0  0  0
 34125  1  0  0  0  0
 35126  1  0  0  0  0
 35127  1  0  0  0  0
 35128  1  0  0  0  0
 36129  1  0  0  0  0
 36130  1  0  0  0  0
 36131  1  0  0  0  0
 37 38  1  0  0  0  0
 37132  1  0  0  0  0
 38 39  1  0  0  0  0
 38 41  1  0  0  0  0
 38133  1  1  0  0  0
 39 40  2  0  0  0  0
 39 44  1  0  0  0  0
 41 42  1  0  0  0  0
 41 43  1  0  0  0  0
 41134  1  0  0  0  0
 42135  1  0  0  0  0
 42136  1  0  0  0  0
 42137  1  0  0  0  0
 43138  1  0  0  0  0
 43139  1  0  0  0  0
 43140  1  0  0  0  0
 44 45  1  0  0  0  0
 44141  1  0  0  0  0
 45 46  1  0  0  0  0
 45142  1  0  0  0  0
 45143  1  0  0  0  0
 46 47  2  0  0  0  0
 46 48  1  0  0  0  0
 48 49  1  0  0  0  0
 48144  1  0  0  0  0
 49 50  1  0  0  0  0
 49 52  1  0  0  0  0
 49145  1  1  0  0  0
 50 51  2  0  0  0  0
 50 59  1  0  0  0  0
 52 53  1  0  0  0  0
 52146  1  0  0  0  0
 52147  1  0  0  0  0
 53 54  1  0  0  0  0
 53148  1  0  0  0  0
 53149  1  0  0  0  0
 54 55  1  0  0  0  0
 54150  1  0  0  0  0
 54151  1  0  0  0  0
 55 56  1  0  0  0  0
 55152  1  0  0  0  0
 56 57  1  0  0  0  0
 56 58  1  0  0  0  0
 57153  1  0  0  0  0
 57154  1  0  0  0  0
 58155  1  0  0  0  0
 58156  1  0  0  0  0
 59 60  1  0  0  0  0
 59157  1  0  0  0  0
 60 61  1  0  0  0  0
 60 63  1  0  0  0  0
 60158  1  6  0  0  0
 61 62  2  0  0  0  0
 61 67  1  0  0  0  0
 63 64  1  0  0  0  0
 63 65  1  0  0  0  0
 63159  1  1  0  0  0
 64 66  1  0  0  0  0
 64160  1  0  0  0  0
 64161  1  0  0  0  0
 65162  1  0  0  0  0
 65163  1  0  0  0  0
 65164  1  0  0  0  0
 66165  1  0  0  0  0
 66166  1  0  0  0  0
 66167  1  0  0  0  0
 67 68  1  0  0  0  0
 67168  1  0  0  0  0
 68 69  1  0  0  0  0
 68 71  1  0  0  0  0
 68169  1  1  0  0  0
 69 70  2  0  0  0  0
 69 75  1  0  0  0  0
 71 72  1  0  0  0  0
 71 73  1  0  0  0  0
 71170  1  6  0  0  0
 72 74  1  0  0  0  0
 72171  1  0  0  0  0
 72172  1  0  0  0  0
 73173  1  0  0  0  0
 73174  1  0  0  0  0
 73175  1  0  0  0  0
 74176  1  0  0  0  0
 74177  1  0  0  0  0
 74178  1  0  0  0  0
 75 76  1  0  0  0  0
 75179  1  0  0  0  0
 76 77  1  0  0  0  0
 76 79  1  0  0  0  0
 76180  1  6  0  0  0
 77 78  2  0  0  0  0
 77 83  1  0  0  0  0
 79 80  1  0  0  0  0
 79181  1  0  0  0  0
 79182  1  0  0  0  0
 80 81  1  0  0  0  0
 80 82  1  0  0  0  0
 80183  1  0  0  0  0
 81184  1  0  0  0  0
 81185  1  0  0  0  0
 81186  1  0  0  0  0
 82187  1  0  0  0  0
 82188  1  0  0  0  0
 82189  1  0  0  0  0
 83 84  1  0  0  0  0
 83190  1  0  0  0  0
 84 85  1  0  0  0  0
 84 87  1  0  0  0  0
 84191  1  1  0  0  0
 85 86  1  0  0  0  0
 85 89  2  0  0  0  0
 87 88  1  0  0  0  0
 87192  1  0  0  0  0
 87193  1  0  0  0  0
 88194  1  0  0  0  0
M  CHG  2   1   1  86  -1
M  END
