4i32_ligand
 OpenBabel08222323353D

194193  0  0  1  0  0  0  0  0999 V2000
   76.3360   -3.7770   13.9460 N   0  3  0  0  0  0  0  0  0  0  0  0
   75.5140   -3.7460   15.1440 C   0  0  0  0  0  0  0  0  0  0  0  0
   76.1680   -3.0380   16.3210 C   0  0  0  0  0  0  0  0  0  0  0  0
   76.1190   -3.5240   17.4540 O   0  0  0  0  0  0  0  0  0  0  0  0
   76.7770   -1.8850   16.0600 N   0  0  0  0  0  0  0  0  0  0  0  0
   77.4020   -1.0930   17.1100 C   0  0  0  0  0  0  0  0  0  0  0  0
   76.5370    0.0240   17.6940 C   0  0  0  0  0  0  0  0  0  0  0  0
   75.3170   -0.1040   17.7940 O   0  0  0  0  0  0  0  0  0  0  0  0
   77.1880    1.1080   18.1140 N   0  0  0  0  0  0  0  0  0  0  0  0
   76.5060    2.2740   18.6550 C   0  0  2  0  0  0  0  0  0  0  0  0
   76.1120    3.2310   17.5420 C   0  0  0  0  0  0  0  0  0  0  0  0
   76.8190    3.3610   16.5430 O   0  0  0  0  0  0  0  0  0  0  0  0
   77.4100    3.0360   19.6290 C   0  0  0  0  0  0  0  0  0  0  0  0
   77.6540    2.3300   20.8260 O   0  0  0  0  0  0  0  0  0  0  0  0
   74.9740    3.8940   17.7110 N   0  0  0  0  0  0  0  0  0  0  0  0
   74.7140    5.1180   16.9630 C   0  0  2  0  0  0  0  0  0  0  0  0
   75.7870    6.1550   17.3150 C   0  0  0  0  0  0  0  0  0  0  0  0
   76.1910    6.2730   18.4780 O   0  0  0  0  0  0  0  0  0  0  0  0
   73.3510    5.7100   17.2990 C   0  0  0  0  0  0  0  0  0  0  0  0
   73.1110    6.9850   16.4730 C   0  0  0  0  0  0  0  0  0  0  0  0
   72.2610    4.6790   17.0560 C   0  0  0  0  0  0  0  0  0  0  0  0
   76.2440    6.8930   16.3060 N   0  0  0  0  0  0  0  0  0  0  0  0
   77.3360    7.8460   16.4630 C   0  0  2  0  0  0  0  0  0  0  0  0
   76.8930    9.2270   15.9900 C   0  0  0  0  0  0  0  0  0  0  0  0
   76.2560    9.3460   14.9330 O   0  0  0  0  0  0  0  0  0  0  0  0
   78.5560    7.4270   15.6200 C   0  0  0  0  0  0  0  0  0  0  0  0
   79.6400    8.4820   15.7020 C   0  0  0  0  0  0  0  0  0  0  0  0
   79.0920    6.0690   16.0730 C   0  0  0  0  0  0  0  0  0  0  0  0
   77.2160   10.2620   16.7650 N   0  0  0  0  0  0  0  0  0  0  0  0
   76.9880   11.6320   16.3210 C   0  0  2  0  0  0  0  0  0  0  0  0
   78.1240   12.0280   15.3880 C   0  0  0  0  0  0  0  0  0  0  0  0
   79.2840   12.0990   15.8050 O   0  0  0  0  0  0  0  0  0  0  0  0
   76.9570   12.5980   17.5150 C   0  0  2  0  0  0  0  0  0  0  0  0
   75.7390   12.3040   18.3980 C   0  0  0  0  0  0  0  0  0  0  0  0
   76.9110   14.0360   17.0400 C   0  0  0  0  0  0  0  0  0  0  0  0
   75.8250   12.9020   19.7630 C   0  0  0  0  0  0  0  0  0  0  0  0
   77.7790   12.2440   14.1190 N   0  0  0  0  0  0  0  0  0  0  0  0
   78.7280   12.6190   13.0820 C   0  0  2  0  0  0  0  0  0  0  0  0
   78.6960   14.0990   12.6730 C   0  0  0  0  0  0  0  0  0  0  0  0
   79.4620   14.5300   11.8020 O   0  0  0  0  0  0  0  0  0  0  0  0
   78.5860   11.7210   11.8480 C   0  0  0  0  0  0  0  0  0  0  0  0
   78.6540   10.2860   12.2600 C   0  0  0  0  0  0  0  0  0  0  0  0
   77.3060   12.0070   11.1140 C   0  0  0  0  0  0  0  0  0  0  0  0
   77.7930   14.8660   13.2790 N   0  0  0  0  0  0  0  0  0  0  0  0
   77.6190   16.2640   12.9250 C   0  0  0  0  0  0  0  0  0  0  0  0
   76.5250   16.8440   13.7950 C   0  0  0  0  0  0  0  0  0  0  0  0
   75.9110   16.1270   14.5870 O   0  0  0  0  0  0  0  0  0  0  0  0
   76.2920   18.1430   13.6780 N   0  0  0  0  0  0  0  0  0  0  0  0
   75.1440   18.7530   14.3390 C   0  0  2  0  0  0  0  0  0  0  0  0
   74.5770   19.9010   13.5260 C   0  0  0  0  0  0  0  0  0  0  0  0
   75.1280   20.2940   12.4970 O   0  0  0  0  0  0  0  0  0  0  0  0
   75.5010   19.2510   15.7480 C   0  0  0  0  0  0  0  0  0  0  0  0
   76.4380   20.4410   15.7700 C   0  0  0  0  0  0  0  0  0  0  0  0
   77.8790   20.0010   15.5800 C   0  0  0  0  0  0  0  0  0  0  0  0
   78.8160   21.0560   15.9440 N   0  0  0  0  0  0  0  0  0  0  0  0
   79.6300   21.0280   16.9940 C   0  0  0  0  0  3  0  0  0  0  0  0
   79.6490   19.9930   17.8200 N   0  0  0  0  0  0  0  0  0  0  0  0
   80.4360   22.0520   17.2090 N   0  0  0  0  0  0  0  0  0  0  0  0
   73.4810   20.4590   14.0170 N   0  0  0  0  0  0  0  0  0  0  0  0
   72.8240   21.5640   13.3380 C   0  0  2  0  0  0  0  0  0  0  0  0
   72.4350   22.6220   14.3570 C   0  0  0  0  0  0  0  0  0  0  0  0
   71.8220   22.3230   15.3860 O   0  0  0  0  0  0  0  0  0  0  0  0
   71.5960   21.0800   12.5530 C   0  0  2  0  0  0  0  0  0  0  0  0
   72.0410   20.3010   11.3160 C   0  0  0  0  0  0  0  0  0  0  0  0
   70.6930   22.2580   12.1780 C   0  0  0  0  0  0  0  0  0  0  0  0
   70.8950   19.6430   10.5930 C   0  0  0  0  0  0  0  0  0  0  0  0
   72.8170   23.8560   14.0650 N   0  0  0  0  0  0  0  0  0  0  0  0
   72.6580   24.9660   14.9890 C   0  0  2  0  0  0  0  0  0  0  0  0
   71.5240   25.8760   14.5260 C   0  0  0  0  0  0  0  0  0  0  0  0
   71.5210   26.3940   13.3910 O   0  0  0  0  0  0  0  0  0  0  0  0
   73.9630   25.7970   15.0760 C   0  0  2  0  0  0  0  0  0  0  0  0
   75.1850   24.8870   15.2610 C   0  0  0  0  0  0  0  0  0  0  0  0
   73.8610   26.8700   16.1580 C   0  0  0  0  0  0  0  0  0  0  0  0
   75.4150   24.4560   16.6790 C   0  0  0  0  0  0  0  0  0  0  0  0
   70.5570   26.0720   15.4140 N   0  0  0  0  0  0  0  0  0  0  0  0
   69.3750   26.8660   15.0910 C   0  0  2  0  0  0  0  0  0  0  0  0
   69.5300   28.3090   15.5210 C   0  0  0  0  0  0  0  0  0  0  0  0
   70.1310   28.5920   16.5480 O   0  0  0  0  0  0  0  0  0  0  0  0
   68.1330   26.2710   15.7460 C   0  0  0  0  0  0  0  0  0  0  0  0
   67.8070   24.8660   15.2600 C   0  0  0  0  0  0  0  0  0  0  0  0
   66.5520   24.3550   15.9500 C   0  0  0  0  0  0  0  0  0  0  0  0
   67.6460   24.9040   13.7570 C   0  0  0  0  0  0  0  0  0  0  0  0
   68.9710   29.2130   14.7250 N   0  0  0  0  0  0  0  0  0  0  0  0
   68.9930   30.6330   15.0270 C   0  0  2  0  0  0  0  0  0  0  0  0
   67.6580   31.2680   14.6220 C   0  0  0  0  0  0  0  0  0  0  0  0
   67.0968   32.1383   15.3398 O   0  5  0  0  0  0  0  0  0  0  0  0
   70.1630   31.2880   14.2920 C   0  0  0  0  0  0  0  0  0  0  0  0
   70.0880   32.6940   14.3320 O   0  0  0  0  0  0  0  0  0  0  0  0
   67.1087   30.9111   13.5457 O   0  0  0  0  0  0  0  0  0  0  0  0
   75.8415   -4.2588   13.2116 H   0  0  0  0  0  0  0  0  0  0  0  0
   77.1987   -4.2597   14.1428 H   0  0  0  0  0  0  0  0  0  0  0  0
   76.5379   -2.8341   13.6525 H   0  0  0  0  0  0  0  0  0  0  0  0
   75.2952   -4.7823   15.4411 H   0  0  0  0  0  0  0  0  0  0  0  0
   74.5741   -3.2265   14.9060 H   0  0  0  0  0  0  0  0  0  0  0  0
   76.8065   -1.5529   15.1172 H   0  0  0  0  0  0  0  0  0  0  0  0
   78.3113   -0.6350   16.6935 H   0  0  0  0  0  0  0  0  0  0  0  0
   77.6764   -1.7731   17.9299 H   0  0  0  0  0  0  0  0  0  0  0  0
   78.1862    1.1208   18.0550 H   0  0  0  0  0  0  0  0  0  0  0  0
   75.6019    1.9395   19.1848 H   0  0  0  0  0  0  0  0  0  0  0  0
   76.9276    3.9924   19.8790 H   0  0  0  0  0  0  0  0  0  0  0  0
   78.3732    3.2294   19.1342 H   0  0  0  0  0  0  0  0  0  0  0  0
   76.8297    2.1637   21.2679 H   0  0  0  0  0  0  0  0  0  0  0  0
   74.2907    3.5514   18.3557 H   0  0  0  0  0  0  0  0  0  0  0  0
   74.7538    4.8943   15.8867 H   0  0  0  0  0  0  0  0  0  0  0  0
   73.3394    5.9811   18.3650 H   0  0  0  0  0  0  0  0  0  0  0  0
   72.1251    7.4038   16.7232 H   0  0  0  0  0  0  0  0  0  0  0  0
   73.1437    6.7392   15.4013 H   0  0  0  0  0  0  0  0  0  0  0  0
   73.8925    7.7239   16.7038 H   0  0  0  0  0  0  0  0  0  0  0  0
   72.4630    3.7824   17.6604 H   0  0  0  0  0  0  0  0  0  0  0  0
   72.2448    4.4067   15.9904 H   0  0  0  0  0  0  0  0  0  0  0  0
   71.2863    5.1016   17.3414 H   0  0  0  0  0  0  0  0  0  0  0  0
   75.8219    6.7898   15.4053 H   0  0  0  0  0  0  0  0  0  0  0  0
   77.6223    7.8925   17.5241 H   0  0  0  0  0  0  0  0  0  0  0  0
   78.2370    7.3388   14.5710 H   0  0  0  0  0  0  0  0  0  0  0  0
   80.5029    8.1689   15.0960 H   0  0  0  0  0  0  0  0  0  0  0  0
   79.9530    8.6056   16.7493 H   0  0  0  0  0  0  0  0  0  0  0  0
   79.2513    9.4376   15.3202 H   0  0  0  0  0  0  0  0  0  0  0  0
   78.2911    5.3179   16.0062 H   0  0  0  0  0  0  0  0  0  0  0  0
   79.4411    6.1411   17.1136 H   0  0  0  0  0  0  0  0  0  0  0  0
   79.9294    5.7706   15.4251 H   0  0  0  0  0  0  0  0  0  0  0  0
   77.6207   10.0966   17.6644 H   0  0  0  0  0  0  0  0  0  0  0  0
   76.0293   11.6877   15.7846 H   0  0  0  0  0  0  0  0  0  0  0  0
   77.8707   12.4519   18.1098 H   0  0  0  0  0  0  0  0  0  0  0  0
   75.6420   11.2133   18.5029 H   0  0  0  0  0  0  0  0  0  0  0  0
   74.8444   12.7054   17.8995 H   0  0  0  0  0  0  0  0  0  0  0  0
   77.7870   14.2413   16.4071 H   0  0  0  0  0  0  0  0  0  0  0  0
   76.9208   14.7098   17.9094 H   0  0  0  0  0  0  0  0  0  0  0  0
   75.9919   14.2009   16.4586 H   0  0  0  0  0  0  0  0  0  0  0  0
   74.9188   12.6478   20.3324 H   0  0  0  0  0  0  0  0  0  0  0  0
   75.9109   13.9954   19.6796 H   0  0  0  0  0  0  0  0  0  0  0  0
   76.7086   12.5033   20.2830 H   0  0  0  0  0  0  0  0  0  0  0  0
   76.8168   12.1430   13.8662 H   0  0  0  0  0  0  0  0  0  0  0  0
   79.7282   12.4358   13.5017 H   0  0  0  0  0  0  0  0  0  0  0  0
   79.4254   11.9288   11.1682 H   0  0  0  0  0  0  0  0  0  0  0  0
   78.5518    9.6445   11.3723 H   0  0  0  0  0  0  0  0  0  0  0  0
   77.8388   10.0681   12.9657 H   0  0  0  0  0  0  0  0  0  0  0  0
   79.6214   10.0892   12.7451 H   0  0  0  0  0  0  0  0  0  0  0  0
   77.2798   13.0672   10.8220 H   0  0  0  0  0  0  0  0  0  0  0  0
   76.4504   11.7859   11.7690 H   0  0  0  0  0  0  0  0  0  0  0  0
   77.2510   11.3773   10.2138 H   0  0  0  0  0  0  0  0  0  0  0  0
   77.2197   14.4699   13.9963 H   0  0  0  0  0  0  0  0  0  0  0  0
   77.3342   16.3464   11.8657 H   0  0  0  0  0  0  0  0  0  0  0  0
   78.5584   16.8103   13.0958 H   0  0  0  0  0  0  0  0  0  0  0  0
   76.9086   18.7100   13.1318 H   0  0  0  0  0  0  0  0  0  0  0  0
   74.3644   17.9830   14.4350 H   0  0  0  0  0  0  0  0  0  0  0  0
   75.9803   18.4251   16.2941 H   0  0  0  0  0  0  0  0  0  0  0  0
   74.5696   19.5366   16.2587 H   0  0  0  0  0  0  0  0  0  0  0  0
   76.3435   20.9558   16.7375 H   0  0  0  0  0  0  0  0  0  0  0  0
   76.1625   21.1311   14.9590 H   0  0  0  0  0  0  0  0  0  0  0  0
   78.0344   19.7347   14.5241 H   0  0  0  0  0  0  0  0  0  0  0  0
   78.0696   19.1211   16.2120 H   0  0  0  0  0  0  0  0  0  0  0  0
   78.8501   21.8893   15.3396 H   0  0  0  0  0  0  0  0  0  0  0  0
   80.2875   19.9908   18.6283 H   0  0  0  0  0  0  0  0  0  0  0  0
   79.0253   19.1902   17.6542 H   0  0  0  0  0  0  0  0  0  0  0  0
   80.4249   22.8593   16.5694 H   0  0  0  0  0  0  0  0  0  0  0  0
   81.0757   22.0433   18.0163 H   0  0  0  0  0  0  0  0  0  0  0  0
   73.0971   20.1129   14.8731 H   0  0  0  0  0  0  0  0  0  0  0  0
   73.5344   22.0085   12.6254 H   0  0  0  0  0  0  0  0  0  0  0  0
   71.0191   20.4005   13.1976 H   0  0  0  0  0  0  0  0  0  0  0  0
   72.7519   19.5221   11.6288 H   0  0  0  0  0  0  0  0  0  0  0  0
   72.5395   20.9960   10.6242 H   0  0  0  0  0  0  0  0  0  0  0  0
   70.3926   22.7946   13.0901 H   0  0  0  0  0  0  0  0  0  0  0  0
   69.7972   21.8833   11.6612 H   0  0  0  0  0  0  0  0  0  0  0  0
   71.2404   22.9426   11.5134 H   0  0  0  0  0  0  0  0  0  0  0  0
   71.2779   19.1005    9.7160 H   0  0  0  0  0  0  0  0  0  0  0  0
   70.1789   20.4109   10.2651 H   0  0  0  0  0  0  0  0  0  0  0  0
   70.3914   18.9371   11.2697 H   0  0  0  0  0  0  0  0  0  0  0  0
   73.2318   24.0310   13.1721 H   0  0  0  0  0  0  0  0  0  0  0  0
   72.4182   24.5672   15.9857 H   0  0  0  0  0  0  0  0  0  0  0  0
   74.0879   26.3167   14.1146 H   0  0  0  0  0  0  0  0  0  0  0  0
   76.0767   25.4307   14.9157 H   0  0  0  0  0  0  0  0  0  0  0  0
   75.0427   23.9871   14.6447 H   0  0  0  0  0  0  0  0  0  0  0  0
   72.9709   27.4903   15.9764 H   0  0  0  0  0  0  0  0  0  0  0  0
   74.7603   27.5029   16.1327 H   0  0  0  0  0  0  0  0  0  0  0  0
   73.7782   26.3897   17.1441 H   0  0  0  0  0  0  0  0  0  0  0  0
   76.3042   23.8102   16.7263 H   0  0  0  0  0  0  0  0  0  0  0  0
   74.5378   23.8990   17.0398 H   0  0  0  0  0  0  0  0  0  0  0  0
   75.5718   25.3426   17.3109 H   0  0  0  0  0  0  0  0  0  0  0  0
   70.6399   25.6668   16.3245 H   0  0  0  0  0  0  0  0  0  0  0  0
   69.2383   26.8445   13.9997 H   0  0  0  0  0  0  0  0  0  0  0  0
   67.2757   26.9239   15.5251 H   0  0  0  0  0  0  0  0  0  0  0  0
   68.2958   26.2347   16.8333 H   0  0  0  0  0  0  0  0  0  0  0  0
   68.6413   24.1943   15.5104 H   0  0  0  0  0  0  0  0  0  0  0  0
   66.3246   23.3398   15.5926 H   0  0  0  0  0  0  0  0  0  0  0  0
   65.7088   25.0225   15.7188 H   0  0  0  0  0  0  0  0  0  0  0  0
   66.7147   24.3329   17.0377 H   0  0  0  0  0  0  0  0  0  0  0  0
   68.5731   25.2782   13.2983 H   0  0  0  0  0  0  0  0  0  0  0  0
   66.8118   25.5711   13.4943 H   0  0  0  0  0  0  0  0  0  0  0  0
   67.4360   23.8904   13.3850 H   0  0  0  0  0  0  0  0  0  0  0  0
   68.5189   28.9049   13.8879 H   0  0  0  0  0  0  0  0  0  0  0  0
   69.1342   30.7685   16.1094 H   0  0  0  0  0  0  0  0  0  0  0  0
   70.1509   30.9611   13.2418 H   0  0  0  0  0  0  0  0  0  0  0  0
   71.1035   30.9686   14.7647 H   0  0  0  0  0  0  0  0  0  0  0  0
   70.8294   33.0629   13.8665 H   0  0  0  0  0  0  0  0  0  0  0  0
  1  2  1  0  0  0  0
  1 90  1  0  0  0  0
  1 91  1  0  0  0  0
  1 92  1  0  0  0  0
  2  3  1  0  0  0  0
  2 93  1  0  0  0  0
  2 94  1  0  0  0  0
  3  4  2  0  0  0  0
  3  5  1  0  0  0  0
  5  6  1  0  0  0  0
  5 95  1  0  0  0  0
  6  7  1  0  0  0  0
  6 96  1  0  0  0  0
  6 97  1  0  0  0  0
  7  8  2  0  0  0  0
  7  9  1  0  0  0  0
  9 10  1  0  0  0  0
  9 98  1  0  0  0  0
 10 11  1  0  0  0  0
 10 13  1  0  0  0  0
 10 99  1  1  0  0  0
 11 12  2  0  0  0  0
 11 15  1  0  0  0  0
 13 14  1  0  0  0  0
 13100  1  0  0  0  0
 13101  1  0  0  0  0
 14102  1  0  0  0  0
 15 16  1  0  0  0  0
 15103  1  0  0  0  0
 16 17  1  0  0  0  0
 16 19  1  0  0  0  0
 16104  1  6  0  0  0
 17 18  2  0  0  0  0
 17 22  1  0  0  0  0
 19 20  1  0  0  0  0
 19 21  1  0  0  0  0
 19105  1  0  0  0  0
 20106  1  0  0  0  0
 20107  1  0  0  0  0
 20108  1  0  0  0  0
 21109  1  0  0  0  0
 21110  1  0  0  0  0
 21111  1  0  0  0  0
 22 23  1  0  0  0  0
 22112  1  0  0  0  0
 23 24  1  0  0  0  0
 23 26  1  0  0  0  0
 23113  1  1  0  0  0
 24 25  2  0  0  0  0
 24 29  1  0  0  0  0
 26 27  1  0  0  0  0
 26 28  1  0  0  0  0
 26114  1  0  0  0  0
 27115  1  0  0  0  0
 27116  1  0  0  0  0
 27117  1  0  0  0  0
 28118  1  0  0  0  0
 28119  1  0  0  0  0
 28120  1  0  0  0  0
 29 30  1  0  0  0  0
 29121  1  0  0  0  0
 30 31  1  0  0  0  0
 30 33  1  0  0  0  0
 30122  1  6  0  0  0
 31 32  2  0  0  0  0
 31 37  1  0  0  0  0
 33 34  1  0  0  0  0
 33 35  1  0  0  0  0
 33123  1  1  0  0  0
 34 36  1  0  0  0  0
 34124  1  0  0  0  0
 34125  1  0  0  0  0
 35126  1  0  0  0  0
 35127  1  0  0  0  0
 35128  1  0  0  0  0
 36129  1  0  0  0  0
 36130  1  0  0  0  0
 36131  1  0  0  0  0
 37 38  1  0  0  0  0
 37132  1  0  0  0  0
 38 39  1  0  0  0  0
 38 41  1  0  0  0  0
 38133  1  1  0  0  0
 39 40  2  0  0  0  0
 39 44  1  0  0  0  0
 41 42  1  0  0  0  0
 41 43  1  0  0  0  0
 41134  1  0  0  0  0
 42135  1  0  0  0  0
 42136  1  0  0  0  0
 42137  1  0  0  0  0
 43138  1  0  0  0  0
 43139  1  0  0  0  0
 43140  1  0  0  0  0
 44 45  1  0  0  0  0
 44141  1  0  0  0  0
 45 46  1  0  0  0  0
 45142  1  0  0  0  0
 45143  1  0  0  0  0
 46 47  2  0  0  0  0
 46 48  1  0  0  0  0
 48 49  1  0  0  0  0
 48144  1  0  0  0  0
 49 50  1  0  0  0  0
 49 52  1  0  0  0  0
 49145  1  1  0  0  0
 50 51  2  0  0  0  0
 50 59  1  0  0  0  0
 52 53  1  0  0  0  0
 52146  1  0  0  0  0
 52147  1  0  0  0  0
 53 54  1  0  0  0  0
 53148  1  0  0  0  0
 53149  1  0  0  0  0
 54 55  1  0  0  0  0
 54150  1  0  0  0  0
 54151  1  0  0  0  0
 55 56  1  0  0  0  0
 55152  1  0  0  0  0
 56 57  1  0  0  0  0
 56 58  1  0  0  0  0
 57153  1  0  0  0  0
 57154  1  0  0  0  0
 58155  1  0  0  0  0
 58156  1  0  0  0  0
 59 60  1  0  0  0  0
 59157  1  0  0  0  0
 60 61  1  0  0  0  0
 60 63  1  0  0  0  0
 60158  1  6  0  0  0
 61 62  2  0  0  0  0
 61 67  1  0  0  0  0
 63 64  1  0  0  0  0
 63 65  1  0  0  0  0
 63159  1  1  0  0  0
 64 66  1  0  0  0  0
 64160  1  0  0  0  0
 64161  1  0  0  0  0
 65162  1  0  0  0  0
 65163  1  0  0  0  0
 65164  1  0  0  0  0
 66165  1  0  0  0  0
 66166  1  0  0  0  0
 66167  1  0  0  0  0
 67 68  1  0  0  0  0
 67168  1  0  0  0  0
 68 69  1  0  0  0  0
 68 71  1  0  0  0  0
 68169  1  1  0  0  0
 69 70  2  0  0  0  0
 69 75  1  0  0  0  0
 71 72  1  0  0  0  0
 71 73  1  0  0  0  0
 71170  1  6  0  0  0
 72 74  1  0  0  0  0
 72171  1  0  0  0  0
 72172  1  0  0  0  0
 73173  1  0  0  0  0
 73174  1  0  0  0  0
 73175  1  0  0  0  0
 74176  1  0  0  0  0
 74177  1  0  0  0  0
 74178  1  0  0  0  0
 75 76  1  0  0  0  0
 75179  1  0  0  0  0
 76 77  1  0  0  0  0
 76 79  1  0  0  0  0
 76180  1  6  0  0  0
 77 78  2  0  0  0  0
 77 83  1  0  0  0  0
 79 80  1  0  0  0  0
 79181  1  0  0  0  0
 79182  1  0  0  0  0
 80 81  1  0  0  0  0
 80 82  1  0  0  0  0
 80183  1  0  0  0  0
 81184  1  0  0  0  0
 81185  1  0  0  0  0
 81186  1  0  0  0  0
 82187  1  0  0  0  0
 82188  1  0  0  0  0
 82189  1  0  0  0  0
 83 84  1  0  0  0  0
 83190  1  0  0  0  0
 84 85  1  0  0  0  0
 84 87  1  0  0  0  0
 84191  1  1  0  0  0
 85 86  1  0  0  0  0
 85 89  2  0  0  0  0
 87 88  1  0  0  0  0
 87192  1  0  0  0  0
 87193  1  0  0  0  0
 88194  1  0  0  0  0
M  CHG  2   1   1  86  -1
M  END
