4i33_ligand
 OpenBabel08222323353D

194193  0  0  1  0  0  0  0  0999 V2000
   75.6140   -3.8690   15.0640 N   0  3  0  0  0  0  0  0  0  0  0  0
   75.3860   -4.1000   16.4800 C   0  0  0  0  0  0  0  0  0  0  0  0
   76.1470   -3.1100   17.3470 C   0  0  0  0  0  0  0  0  0  0  0  0
   76.3010   -3.3000   18.5550 O   0  0  0  0  0  0  0  0  0  0  0  0
   76.6410   -2.0490   16.7240 N   0  0  0  0  0  0  0  0  0  0  0  0
   77.3710   -1.0390   17.4560 C   0  0  0  0  0  0  0  0  0  0  0  0
   76.4490    0.0220   18.0290 C   0  0  0  0  0  0  0  0  0  0  0  0
   75.2230   -0.1110   18.0040 O   0  0  0  0  0  0  0  0  0  0  0  0
   77.0510    1.0630   18.5840 N   0  0  0  0  0  0  0  0  0  0  0  0
   76.3120    2.1950   19.0860 C   0  0  2  0  0  0  0  0  0  0  0  0
   75.9550    3.1420   17.9540 C   0  0  0  0  0  0  0  0  0  0  0  0
   76.6280    3.1900   16.9230 O   0  0  0  0  0  0  0  0  0  0  0  0
   77.1390    2.9350   20.1380 C   0  0  0  0  0  0  0  0  0  0  0  0
   77.5050    2.0540   21.1850 O   0  0  0  0  0  0  0  0  0  0  0  0
   74.8860    3.9000   18.1600 N   0  0  0  0  0  0  0  0  0  0  0  0
   74.6140    5.0610   17.3310 C   0  0  2  0  0  0  0  0  0  0  0  0
   75.6560    6.1110   17.6690 C   0  0  0  0  0  0  0  0  0  0  0  0
   76.0540    6.2410   18.8290 O   0  0  0  0  0  0  0  0  0  0  0  0
   73.2240    5.6280   17.6070 C   0  0  0  0  0  0  0  0  0  0  0  0
   73.0110    6.9260   16.8230 C   0  0  0  0  0  0  0  0  0  0  0  0
   72.1600    4.5760   17.2520 C   0  0  0  0  0  0  0  0  0  0  0  0
   76.0960    6.8490   16.6560 N   0  0  0  0  0  0  0  0  0  0  0  0
   77.1670    7.8320   16.8140 C   0  0  2  0  0  0  0  0  0  0  0  0
   76.7270    9.2330   16.3690 C   0  0  0  0  0  0  0  0  0  0  0  0
   76.0710    9.3770   15.3410 O   0  0  0  0  0  0  0  0  0  0  0  0
   78.4070    7.4240   15.9820 C   0  0  0  0  0  0  0  0  0  0  0  0
   79.5200    8.4830   16.1310 C   0  0  0  0  0  0  0  0  0  0  0  0
   78.9010    6.0250   16.3960 C   0  0  0  0  0  0  0  0  0  0  0  0
   77.0820   10.2570   17.1410 N   0  0  0  0  0  0  0  0  0  0  0  0
   76.8300   11.6250   16.7180 C   0  0  2  0  0  0  0  0  0  0  0  0
   77.9400   11.9780   15.7420 C   0  0  0  0  0  0  0  0  0  0  0  0
   79.1270   11.9500   16.0970 O   0  0  0  0  0  0  0  0  0  0  0  0
   76.8630   12.6020   17.9060 C   0  0  2  0  0  0  0  0  0  0  0  0
   75.6730   12.3430   18.8420 C   0  0  0  0  0  0  0  0  0  0  0  0
   76.8840   14.0580   17.4190 C   0  0  0  0  0  0  0  0  0  0  0  0
   75.8060   12.9990   20.2130 C   0  0  0  0  0  0  0  0  0  0  0  0
   77.5530   12.2190   14.4950 N   0  0  0  0  0  0  0  0  0  0  0  0
   78.4800   12.6170   13.4370 C   0  0  2  0  0  0  0  0  0  0  0  0
   78.4030   14.1030   13.0390 C   0  0  0  0  0  0  0  0  0  0  0  0
   79.1600   14.5530   12.1930 O   0  0  0  0  0  0  0  0  0  0  0  0
   78.3330   11.6940   12.2120 C   0  0  0  0  0  0  0  0  0  0  0  0
   78.6830   10.2370   12.6110 C   0  0  0  0  0  0  0  0  0  0  0  0
   76.9110   11.7610   11.6510 C   0  0  0  0  0  0  0  0  0  0  0  0
   77.4790   14.8500   13.6390 N   0  0  0  0  0  0  0  0  0  0  0  0
   77.3290   16.2620   13.3310 C   0  0  0  0  0  0  0  0  0  0  0  0
   76.2200   16.8860   14.1480 C   0  0  0  0  0  0  0  0  0  0  0  0
   75.5920   16.2240   14.9740 O   0  0  0  0  0  0  0  0  0  0  0  0
   75.9720   18.1720   13.9430 N   0  0  0  0  0  0  0  0  0  0  0  0
   74.8880   18.8140   14.6580 C   0  0  2  0  0  0  0  0  0  0  0  0
   74.3330   19.9610   13.8500 C   0  0  0  0  0  0  0  0  0  0  0  0
   74.9450   20.4170   12.8760 O   0  0  0  0  0  0  0  0  0  0  0  0
   75.3120   19.3030   16.0470 C   0  0  0  0  0  0  0  0  0  0  0  0
   76.2870   20.4860   16.0590 C   0  0  0  0  0  0  0  0  0  0  0  0
   77.7020   20.0080   15.9150 C   0  0  0  0  0  0  0  0  0  0  0  0
   78.6640   21.0420   16.2680 N   0  0  0  0  0  0  0  0  0  0  0  0
   79.4690   21.0050   17.3290 C   0  0  0  0  0  3  0  0  0  0  0  0
   79.4490   19.9770   18.1650 N   0  0  0  0  0  0  0  0  0  0  0  0
   80.2990   22.0070   17.5450 N   0  0  0  0  0  0  0  0  0  0  0  0
   73.1530   20.3950   14.2500 N   0  0  0  0  0  0  0  0  0  0  0  0
   72.4900   21.5210   13.6220 C   0  0  2  0  0  0  0  0  0  0  0  0
   72.1710   22.5170   14.7280 C   0  0  0  0  0  0  0  0  0  0  0  0
   71.6450   22.1520   15.7900 O   0  0  0  0  0  0  0  0  0  0  0  0
   71.2280   21.0680   12.8690 C   0  0  2  0  0  0  0  0  0  0  0  0
   71.6280   20.2500   11.6330 C   0  0  0  0  0  0  0  0  0  0  0  0
   70.3670   22.2740   12.5030 C   0  0  0  0  0  0  0  0  0  0  0  0
   70.5310   19.3650   11.0940 C   0  0  0  0  0  0  0  0  0  0  0  0
   72.5270   23.7720   14.4790 N   0  0  0  0  0  0  0  0  0  0  0  0
   72.3950   24.8330   15.4510 C   0  0  2  0  0  0  0  0  0  0  0  0
   71.2670   25.7150   14.9670 C   0  0  0  0  0  0  0  0  0  0  0  0
   71.2820   26.1660   13.8280 O   0  0  0  0  0  0  0  0  0  0  0  0
   73.6670   25.6970   15.4810 C   0  0  2  0  0  0  0  0  0  0  0  0
   74.8980   24.8220   15.7120 C   0  0  0  0  0  0  0  0  0  0  0  0
   73.5450   26.8210   16.5190 C   0  0  0  0  0  0  0  0  0  0  0  0
   74.9290   24.1920   17.0520 C   0  0  0  0  0  0  0  0  0  0  0  0
   70.2950   25.9520   15.8320 N   0  0  0  0  0  0  0  0  0  0  0  0
   69.1070   26.7260   15.4730 C   0  0  2  0  0  0  0  0  0  0  0  0
   69.2520   28.1890   15.8920 C   0  0  0  0  0  0  0  0  0  0  0  0
   69.8880   28.4880   16.9000 O   0  0  0  0  0  0  0  0  0  0  0  0
   67.8790   26.1030   16.1310 C   0  0  0  0  0  0  0  0  0  0  0  0
   67.6380   24.6700   15.6700 C   0  0  0  0  0  0  0  0  0  0  0  0
   66.4100   24.0750   16.3530 C   0  0  0  0  0  0  0  0  0  0  0  0
   67.4690   24.6880   14.1590 C   0  0  0  0  0  0  0  0  0  0  0  0
   68.6950   29.0950   15.0920 N   0  0  0  0  0  0  0  0  0  0  0  0
   68.6800   30.5130   15.4290 C   0  0  2  0  0  0  0  0  0  0  0  0
   67.2590   31.0620   15.3440 C   0  0  0  0  0  0  0  0  0  0  0  0
   66.7890   31.7721   16.2727 O   0  5  0  0  0  0  0  0  0  0  0  0
   69.5840   31.2980   14.4860 C   0  0  0  0  0  0  0  0  0  0  0  0
   69.6990   32.6500   14.8990 O   0  0  0  0  0  0  0  0  0  0  0  0
   66.5490   30.8029   14.3359 O   0  0  0  0  0  0  0  0  0  0  0  0
   75.0937   -4.5438   14.5255 H   0  0  0  0  0  0  0  0  0  0  0  0
   76.5970   -3.9639   14.8620 H   0  0  0  0  0  0  0  0  0  0  0  0
   75.3095   -2.9391   14.8219 H   0  0  0  0  0  0  0  0  0  0  0  0
   75.7154   -5.1190   16.7314 H   0  0  0  0  0  0  0  0  0  0  0  0
   74.3104   -4.0006   16.6876 H   0  0  0  0  0  0  0  0  0  0  0  0
   76.5072   -1.9466   15.7383 H   0  0  0  0  0  0  0  0  0  0  0  0
   78.0892   -0.5567   16.7766 H   0  0  0  0  0  0  0  0  0  0  0  0
   77.9145   -1.5214   18.2818 H   0  0  0  0  0  0  0  0  0  0  0  0
   78.0483    1.0640   18.6572 H   0  0  0  0  0  0  0  0  0  0  0  0
   75.3836    1.8332   19.5520 H   0  0  0  0  0  0  0  0  0  0  0  0
   76.5436    3.7623   20.5515 H   0  0  0  0  0  0  0  0  0  0  0  0
   78.0484    3.3371   19.6676 H   0  0  0  0  0  0  0  0  0  0  0  0
   76.7208    1.7070   21.5941 H   0  0  0  0  0  0  0  0  0  0  0  0
   74.2553    3.6675   18.9004 H   0  0  0  0  0  0  0  0  0  0  0  0
   74.6884    4.7829   16.2694 H   0  0  0  0  0  0  0  0  0  0  0  0
   73.1437    5.8560   18.6801 H   0  0  0  0  0  0  0  0  0  0  0  0
   72.0059    7.3205   17.0331 H   0  0  0  0  0  0  0  0  0  0  0  0
   73.1078    6.7240   15.7461 H   0  0  0  0  0  0  0  0  0  0  0  0
   73.7662    7.6659   17.1267 H   0  0  0  0  0  0  0  0  0  0  0  0
   72.3430    3.6593   17.8318 H   0  0  0  0  0  0  0  0  0  0  0  0
   72.2147    4.3472   16.1775 H   0  0  0  0  0  0  0  0  0  0  0  0
   71.1612    4.9689   17.4929 H   0  0  0  0  0  0  0  0  0  0  0  0
   75.6806    6.7282   15.7544 H   0  0  0  0  0  0  0  0  0  0  0  0
   77.4462    7.8705   17.8773 H   0  0  0  0  0  0  0  0  0  0  0  0
   78.1138    7.3822   14.9226 H   0  0  0  0  0  0  0  0  0  0  0  0
   80.3946    8.1819   15.5358 H   0  0  0  0  0  0  0  0  0  0  0  0
   79.8078    8.5661   17.1894 H   0  0  0  0  0  0  0  0  0  0  0  0
   79.1508    9.4557   15.7739 H   0  0  0  0  0  0  0  0  0  0  0  0
   78.0842    5.2978   16.2774 H   0  0  0  0  0  0  0  0  0  0  0  0
   79.2231    6.0462   17.4475 H   0  0  0  0  0  0  0  0  0  0  0  0
   79.7483    5.7319   15.7587 H   0  0  0  0  0  0  0  0  0  0  0  0
   77.5262   10.0841   18.0201 H   0  0  0  0  0  0  0  0  0  0  0  0
   75.8500   11.6892   16.2225 H   0  0  0  0  0  0  0  0  0  0  0  0
   77.7883   12.4211   18.4726 H   0  0  0  0  0  0  0  0  0  0  0  0
   75.5769   11.2568   18.9865 H   0  0  0  0  0  0  0  0  0  0  0  0
   74.7634   12.7308   18.3601 H   0  0  0  0  0  0  0  0  0  0  0  0
   77.7461   14.2093   16.7527 H   0  0  0  0  0  0  0  0  0  0  0  0
   76.9661   14.7328   18.2838 H   0  0  0  0  0  0  0  0  0  0  0  0
   75.9549   14.2750   16.8715 H   0  0  0  0  0  0  0  0  0  0  0  0
   74.9177   12.7661   20.8186 H   0  0  0  0  0  0  0  0  0  0  0  0
   75.8913   14.0889   20.0913 H   0  0  0  0  0  0  0  0  0  0  0  0
   76.7048   12.6149   20.7177 H   0  0  0  0  0  0  0  0  0  0  0  0
   76.5834   12.1240   14.2693 H   0  0  0  0  0  0  0  0  0  0  0  0
   79.4924   12.4597   13.8374 H   0  0  0  0  0  0  0  0  0  0  0  0
   79.0342   12.0270   11.4326 H   0  0  0  0  0  0  0  0  0  0  0  0
   78.5770    9.5812   11.7342 H   0  0  0  0  0  0  0  0  0  0  0  0
   78.0006    9.9003   13.4053 H   0  0  0  0  0  0  0  0  0  0  0  0
   79.7197   10.1958   12.9764 H   0  0  0  0  0  0  0  0  0  0  0  0
   76.6754   12.7986   11.3721 H   0  0  0  0  0  0  0  0  0  0  0  0
   76.1988   11.4160   12.4150 H   0  0  0  0  0  0  0  0  0  0  0  0
   76.8366   11.1167   10.7626 H   0  0  0  0  0  0  0  0  0  0  0  0
   76.8749   14.4303   14.3165 H   0  0  0  0  0  0  0  0  0  0  0  0
   77.0931   16.3729   12.2623 H   0  0  0  0  0  0  0  0  0  0  0  0
   78.2735   16.7800   13.5537 H   0  0  0  0  0  0  0  0  0  0  0  0
   76.5297   18.6956   13.2989 H   0  0  0  0  0  0  0  0  0  0  0  0
   74.0887   18.0705   14.7931 H   0  0  0  0  0  0  0  0  0  0  0  0
   75.7915   18.4629   16.5707 H   0  0  0  0  0  0  0  0  0  0  0  0
   74.4054   19.6051   16.5917 H   0  0  0  0  0  0  0  0  0  0  0  0
   76.1843   21.0291   17.0101 H   0  0  0  0  0  0  0  0  0  0  0  0
   76.0469   21.1604   15.2238 H   0  0  0  0  0  0  0  0  0  0  0  0
   77.8710   19.7071   14.8706 H   0  0  0  0  0  0  0  0  0  0  0  0
   77.8534   19.1414   16.5754 H   0  0  0  0  0  0  0  0  0  0  0  0
   78.7271   21.8643   15.6509 H   0  0  0  0  0  0  0  0  0  0  0  0
   80.0780   19.9641   18.9806 H   0  0  0  0  0  0  0  0  0  0  0  0
   78.8045   19.1909   17.9992 H   0  0  0  0  0  0  0  0  0  0  0  0
   80.3183   22.8083   16.8981 H   0  0  0  0  0  0  0  0  0  0  0  0
   80.9278   21.9882   18.3606 H   0  0  0  0  0  0  0  0  0  0  0  0
   72.7007   19.9316   15.0121 H   0  0  0  0  0  0  0  0  0  0  0  0
   73.1738   21.9907   12.8996 H   0  0  0  0  0  0  0  0  0  0  0  0
   70.6394   20.4187   13.5338 H   0  0  0  0  0  0  0  0  0  0  0  0
   72.4833   19.6131   11.9030 H   0  0  0  0  0  0  0  0  0  0  0  0
   71.9280   20.9495   10.8389 H   0  0  0  0  0  0  0  0  0  0  0  0
   70.1053   22.8284   13.4163 H   0  0  0  0  0  0  0  0  0  0  0  0
   69.4475   21.9309   12.0062 H   0  0  0  0  0  0  0  0  0  0  0  0
   70.9277   22.9319   11.8228 H   0  0  0  0  0  0  0  0  0  0  0  0
   70.9004   18.8179   10.2141 H   0  0  0  0  0  0  0  0  0  0  0  0
   69.6689   19.9842   10.8054 H   0  0  0  0  0  0  0  0  0  0  0  0
   70.2241   18.6478   11.8695 H   0  0  0  0  0  0  0  0  0  0  0  0
   72.9031   23.9925   13.5790 H   0  0  0  0  0  0  0  0  0  0  0  0
   72.1835   24.4224   16.4493 H   0  0  0  0  0  0  0  0  0  0  0  0
   73.7764   26.1703   14.4941 H   0  0  0  0  0  0  0  0  0  0  0  0
   75.7961   25.4471   15.5998 H   0  0  0  0  0  0  0  0  0  0  0  0
   74.9078   24.0264   14.9525 H   0  0  0  0  0  0  0  0  0  0  0  0
   72.6460   27.4188   16.3081 H   0  0  0  0  0  0  0  0  0  0  0  0
   74.4346   27.4660   16.4674 H   0  0  0  0  0  0  0  0  0  0  0  0
   73.4669   26.3839   17.5254 H   0  0  0  0  0  0  0  0  0  0  0  0
   75.8378   23.5798   17.1484 H   0  0  0  0  0  0  0  0  0  0  0  0
   74.0420   23.5538   17.1777 H   0  0  0  0  0  0  0  0  0  0  0  0
   74.9303   24.9745   17.8251 H   0  0  0  0  0  0  0  0  0  0  0  0
   70.3748   25.5905   16.7610 H   0  0  0  0  0  0  0  0  0  0  0  0
   68.9806   26.6885   14.3809 H   0  0  0  0  0  0  0  0  0  0  0  0
   66.9966   26.7089   15.8776 H   0  0  0  0  0  0  0  0  0  0  0  0
   68.0236   26.1038   17.2214 H   0  0  0  0  0  0  0  0  0  0  0  0
   68.5133   24.0557   15.9277 H   0  0  0  0  0  0  0  0  0  0  0  0
   66.2597   23.0431   16.0030 H   0  0  0  0  0  0  0  0  0  0  0  0
   65.5243   24.6786   16.1057 H   0  0  0  0  0  0  0  0  0  0  0  0
   66.5607   24.0743   17.4426 H   0  0  0  0  0  0  0  0  0  0  0  0
   68.3673   25.1210   13.6947 H   0  0  0  0  0  0  0  0  0  0  0  0
   66.5909   25.2958   13.8954 H   0  0  0  0  0  0  0  0  0  0  0  0
   67.3267   23.6603   13.7937 H   0  0  0  0  0  0  0  0  0  0  0  0
   68.2750   28.7945   14.2357 H   0  0  0  0  0  0  0  0  0  0  0  0
   69.0485   30.6347   16.4582 H   0  0  0  0  0  0  0  0  0  0  0  0
   69.1593   31.2668   13.4718 H   0  0  0  0  0  0  0  0  0  0  0  0
   70.5831   30.8378   14.4796 H   0  0  0  0  0  0  0  0  0  0  0  0
   70.2661   33.1169   14.2965 H   0  0  0  0  0  0  0  0  0  0  0  0
  1  2  1  0  0  0  0
  1 90  1  0  0  0  0
  1 91  1  0  0  0  0
  1 92  1  0  0  0  0
  2  3  1  0  0  0  0
  2 93  1  0  0  0  0
  2 94  1  0  0  0  0
  3  4  2  0  0  0  0
  3  5  1  0  0  0  0
  5  6  1  0  0  0  0
  5 95  1  0  0  0  0
  6  7  1  0  0  0  0
  6 96  1  0  0  0  0
  6 97  1  0  0  0  0
  7  8  2  0  0  0  0
  7  9  1  0  0  0  0
  9 10  1  0  0  0  0
  9 98  1  0  0  0  0
 10 11  1  0  0  0  0
 10 13  1  0  0  0  0
 10 99  1  1  0  0  0
 11 12  2  0  0  0  0
 11 15  1  0  0  0  0
 13 14  1  0  0  0  0
 13100  1  0  0  0  0
 13101  1  0  0  0  0
 14102  1  0  0  0  0
 15 16  1  0  0  0  0
 15103  1  0  0  0  0
 16 17  1  0  0  0  0
 16 19  1  0  0  0  0
 16104  1  6  0  0  0
 17 18  2  0  0  0  0
 17 22  1  0  0  0  0
 19 20  1  0  0  0  0
 19 21  1  0  0  0  0
 19105  1  0  0  0  0
 20106  1  0  0  0  0
 20107  1  0  0  0  0
 20108  1  0  0  0  0
 21109  1  0  0  0  0
 21110  1  0  0  0  0
 21111  1  0  0  0  0
 22 23  1  0  0  0  0
 22112  1  0  0  0  0
 23 24  1  0  0  0  0
 23 26  1  0  0  0  0
 23113  1  1  0  0  0
 24 25  2  0  0  0  0
 24 29  1  0  0  0  0
 26 27  1  0  0  0  0
 26 28  1  0  0  0  0
 26114  1  0  0  0  0
 27115  1  0  0  0  0
 27116  1  0  0  0  0
 27117  1  0  0  0  0
 28118  1  0  0  0  0
 28119  1  0  0  0  0
 28120  1  0  0  0  0
 29 30  1  0  0  0  0
 29121  1  0  0  0  0
 30 31  1  0  0  0  0
 30 33  1  0  0  0  0
 30122  1  6  0  0  0
 31 32  2  0  0  0  0
 31 37  1  0  0  0  0
 33 34  1  0  0  0  0
 33 35  1  0  0  0  0
 33123  1  1  0  0  0
 34 36  1  0  0  0  0
 34124  1  0  0  0  0
 34125  1  0  0  0  0
 35126  1  0  0  0  0
 35127  1  0  0  0  0
 35128  1  0  0  0  0
 36129  1  0  0  0  0
 36130  1  0  0  0  0
 36131  1  0  0  0  0
 37 38  1  0  0  0  0
 37132  1  0  0  0  0
 38 39  1  0  0  0  0
 38 41  1  0  0  0  0
 38133  1  1  0  0  0
 39 40  2  0  0  0  0
 39 44  1  0  0  0  0
 41 42  1  0  0  0  0
 41 43  1  0  0  0  0
 41134  1  0  0  0  0
 42135  1  0  0  0  0
 42136  1  0  0  0  0
 42137  1  0  0  0  0
 43138  1  0  0  0  0
 43139  1  0  0  0  0
 43140  1  0  0  0  0
 44 45  1  0  0  0  0
 44141  1  0  0  0  0
 45 46  1  0  0  0  0
 45142  1  0  0  0  0
 45143  1  0  0  0  0
 46 47  2  0  0  0  0
 46 48  1  0  0  0  0
 48 49  1  0  0  0  0
 48144  1  0  0  0  0
 49 50  1  0  0  0  0
 49 52  1  0  0  0  0
 49145  1  1  0  0  0
 50 51  2  0  0  0  0
 50 59  1  0  0  0  0
 52 53  1  0  0  0  0
 52146  1  0  0  0  0
 52147  1  0  0  0  0
 53 54  1  0  0  0  0
 53148  1  0  0  0  0
 53149  1  0  0  0  0
 54 55  1  0  0  0  0
 54150  1  0  0  0  0
 54151  1  0  0  0  0
 55 56  1  0  0  0  0
 55152  1  0  0  0  0
 56 57  1  0  0  0  0
 56 58  1  0  0  0  0
 57153  1  0  0  0  0
 57154  1  0  0  0  0
 58155  1  0  0  0  0
 58156  1  0  0  0  0
 59 60  1  0  0  0  0
 59157  1  0  0  0  0
 60 61  1  0  0  0  0
 60 63  1  0  0  0  0
 60158  1  6  0  0  0
 61 62  2  0  0  0  0
 61 67  1  0  0  0  0
 63 64  1  0  0  0  0
 63 65  1  0  0  0  0
 63159  1  1  0  0  0
 64 66  1  0  0  0  0
 64160  1  0  0  0  0
 64161  1  0  0  0  0
 65162  1  0  0  0  0
 65163  1  0  0  0  0
 65164  1  0  0  0  0
 66165  1  0  0  0  0
 66166  1  0  0  0  0
 66167  1  0  0  0  0
 67 68  1  0  0  0  0
 67168  1  0  0  0  0
 68 69  1  0  0  0  0
 68 71  1  0  0  0  0
 68169  1  1  0  0  0
 69 70  2  0  0  0  0
 69 75  1  0  0  0  0
 71 72  1  0  0  0  0
 71 73  1  0  0  0  0
 71170  1  6  0  0  0
 72 74  1  0  0  0  0
 72171  1  0  0  0  0
 72172  1  0  0  0  0
 73173  1  0  0  0  0
 73174  1  0  0  0  0
 73175  1  0  0  0  0
 74176  1  0  0  0  0
 74177  1  0  0  0  0
 74178  1  0  0  0  0
 75 76  1  0  0  0  0
 75179  1  0  0  0  0
 76 77  1  0  0  0  0
 76 79  1  0  0  0  0
 76180  1  6  0  0  0
 77 78  2  0  0  0  0
 77 83  1  0  0  0  0
 79 80  1  0  0  0  0
 79181  1  0  0  0  0
 79182  1  0  0  0  0
 80 81  1  0  0  0  0
 80 82  1  0  0  0  0
 80183  1  0  0  0  0
 81184  1  0  0  0  0
 81185  1  0  0  0  0
 81186  1  0  0  0  0
 82187  1  0  0  0  0
 82188  1  0  0  0  0
 82189  1  0  0  0  0
 83 84  1  0  0  0  0
 83190  1  0  0  0  0
 84 85  1  0  0  0  0
 84 87  1  0  0  0  0
 84191  1  1  0  0  0
 85 86  1  0  0  0  0
 85 89  2  0  0  0  0
 87 88  1  0  0  0  0
 87192  1  0  0  0  0
 87193  1  0  0  0  0
 88194  1  0  0  0  0
M  CHG  2   1   1  86  -1
M  END
