4i5p_ligand
 OpenBabel08222323353D

 47 50  0  0  1  0  0  0  0  0999 V2000
   13.6090    4.2410   10.4520 O   0  0  0  0  0  0  0  0  0  0  0  0
   12.5080    4.8280   10.4470 C   0  0  0  0  0  0  0  0  0  0  0  0
   11.3260    4.1000   10.1720 N   0  0  0  0  0  0  0  0  0  0  0  0
   11.4120    2.6580    9.9060 C   0  0  0  0  0  0  0  0  0  0  0  0
   10.0810    4.7590   10.1500 C   0  0  0  0  0  0  0  0  0  0  0  0
    8.8870    4.0970    9.8920 C   0  0  0  0  0  0  0  0  0  0  0  0
    7.7400    4.7840    9.8900 N   0  0  0  0  0  0  0  0  0  0  0  0
   12.5170    6.2950   10.6720 C   0  0  1  0  0  0  0  0  0  0  0  0
   13.2640    6.8310    9.4360 C   0  0  0  0  0  0  0  0  0  0  0  0
   12.5340    6.6030    8.1150 C   0  0  0  0  0  0  0  0  0  0  0  0
   11.1990    6.9530   10.6910 N   0  0  0  0  0  0  0  0  0  0  0  0
   11.0450    8.4010   10.9860 C   0  0  0  0  0  0  0  0  0  0  0  0
   10.9190    9.3610    9.8130 C   0  0  0  0  0  0  0  0  0  0  0  0
   11.2600   10.7260   10.4150 C   0  0  0  0  0  0  0  0  0  0  0  0
   12.0940   10.4770   11.6730 C   0  0  0  0  0  0  0  0  0  0  0  0
   12.1470    8.9700   11.8860 C   0  0  0  0  0  0  0  0  0  0  0  0
   10.0230    6.2180   10.4260 C   0  0  0  0  0  0  0  0  0  0  0  0
    8.8210    6.8270   10.4050 N   0  0  0  0  0  0  0  0  0  0  0  0
    7.6980    6.1180   10.1450 C   0  0  0  0  0  0  0  0  0  0  0  0
    6.3920    6.8280   10.1170 C   0  0  0  0  0  0  0  0  0  0  0  0
    5.1400    6.4600    9.6690 C   0  0  0  0  0  0  0  0  0  0  0  0
    4.3440    7.5630    9.8920 C   0  0  0  0  0  0  0  0  0  0  0  0
    5.1360    8.5550   10.4410 C   0  0  0  0  0  0  0  0  0  0  0  0
    6.4010    8.0880   10.5730 N   0  0  0  0  0  0  0  0  0  0  0  0
   12.4618    2.3355    9.9692 H   0  0  0  0  0  0  0  0  0  0  0  0
   11.0237    2.4471    8.8987 H   0  0  0  0  0  0  0  0  0  0  0  0
   10.8151    2.1115   10.6509 H   0  0  0  0  0  0  0  0  0  0  0  0
    8.8854    3.0313    9.6938 H   0  0  0  0  0  0  0  0  0  0  0  0
   13.0507    6.5275   11.6053 H   0  0  0  0  0  0  0  0  0  0  0  0
   14.2420    6.3306    9.3803 H   0  0  0  0  0  0  0  0  0  0  0  0
   13.4127    7.9132    9.5654 H   0  0  0  0  0  0  0  0  0  0  0  0
   13.1335    7.0137    7.2892 H   0  0  0  0  0  0  0  0  0  0  0  0
   11.5566    7.1068    8.1444 H   0  0  0  0  0  0  0  0  0  0  0  0
   12.3859    5.5242    7.9593 H   0  0  0  0  0  0  0  0  0  0  0  0
   10.1009    8.4743   11.5457 H   0  0  0  0  0  0  0  0  0  0  0  0
    9.8950    9.3555    9.4112 H   0  0  0  0  0  0  0  0  0  0  0  0
   11.6278    9.0977    9.0141 H   0  0  0  0  0  0  0  0  0  0  0  0
   10.3362   11.2626   10.6768 H   0  0  0  0  0  0  0  0  0  0  0  0
   11.8379   11.3214    9.6929 H   0  0  0  0  0  0  0  0  0  0  0  0
   11.6234   10.9639   12.5399 H   0  0  0  0  0  0  0  0  0  0  0  0
   13.1105   10.8744   11.5363 H   0  0  0  0  0  0  0  0  0  0  0  0
   13.1296    8.5727   11.5917 H   0  0  0  0  0  0  0  0  0  0  0  0
   11.9517    8.7218   12.9397 H   0  0  0  0  0  0  0  0  0  0  0  0
    4.8450    5.5062    9.2341 H   0  0  0  0  0  0  0  0  0  0  0  0
    3.2797    7.6397    9.6744 H   0  0  0  0  0  0  0  0  0  0  0  0
    4.7974    9.5512   10.7220 H   0  0  0  0  0  0  0  0  0  0  0  0
    7.2108    8.6009   10.9499 H   0  0  0  0  0  0  0  0  0  0  0  0
  1  2  2  0  0  0  0
  2  3  1  0  0  0  0
  2  8  1  0  0  0  0
  3  4  1  0  0  0  0
  3  5  1  0  0  0  0
  4 25  1  0  0  0  0
  4 26  1  0  0  0  0
  4 27  1  0  0  0  0
  5  6  2  0  0  0  0
  5 17  1  0  0  0  0
  6  7  1  0  0  0  0
  6 28  1  0  0  0  0
  7 19  2  0  0  0  0
  8  9  1  0  0  0  0
  8 11  1  0  0  0  0
  8 29  1  1  0  0  0
  9 10  1  0  0  0  0
  9 30  1  0  0  0  0
  9 31  1  0  0  0  0
 10 32  1  0  0  0  0
 10 33  1  0  0  0  0
 10 34  1  0  0  0  0
 11 12  1  0  0  0  0
 11 17  1  0  0  0  0
 12 13  1  0  0  0  0
 12 16  1  0  0  0  0
 12 35  1  0  0  0  0
 13 14  1  0  0  0  0
 13 36  1  0  0  0  0
 13 37  1  0  0  0  0
 14 15  1  0  0  0  0
 14 38  1  0  0  0  0
 14 39  1  0  0  0  0
 15 16  1  0  0  0  0
 15 40  1  0  0  0  0
 15 41  1  0  0  0  0
 16 42  1  0  0  0  0
 16 43  1  0  0  0  0
 17 18  2  0  0  0  0
 18 19  1  0  0  0  0
 19 20  1  0  0  0  0
 20 21  2  0  0  0  0
 20 24  1  0  0  0  0
 21 22  1  0  0  0  0
 21 44  1  0  0  0  0
 22 23  2  0  0  0  0
 22 45  1  0  0  0  0
 23 24  1  0  0  0  0
 23 46  1  0  0  0  0
 24 47  1  0  0  0  0
M  END
