4i67_ligand
 OpenBabel08222323353D

142152  0  0  1  0  0  0  0  0999 V2000
   35.0110  -15.2280  -19.6060 O   0  0  0  0  0  1  0  0  0  0  0  0
   36.5750  -15.5130  -19.8470 P   0  0  0  0  0  0  0  0  0  0  0  0
   36.6730  -16.6980  -20.7420 O   0  0  0  0  0  1  0  0  0  0  0  0
   37.2210  -14.2330  -20.2520 O   0  0  0  0  0  0  0  0  0  0  0  0
   37.1230  -15.9410  -18.4060 O   0  0  0  0  0  0  0  0  0  0  0  0
   38.5270  -16.0080  -18.1470 C   0  0  0  0  0  0  0  0  0  0  0  0
   38.8580  -16.4920  -16.7490 C   0  0  1  0  0  0  0  0  0  0  0  0
   38.0940  -15.7370  -15.7690 O   0  0  0  0  0  0  0  0  0  0  0  0
   38.5790  -17.9660  -16.4620 C   0  0  1  0  0  0  0  0  0  0  0  0
   39.5320  -18.4470  -15.5170 O   0  0  0  0  0  0  0  0  0  0  0  0
   37.2160  -17.9200  -15.7910 C   0  0  1  0  0  0  0  0  0  0  0  0
   36.9350  -19.0220  -14.9510 O   0  0  0  0  0  0  0  0  0  0  0  0
   37.3060  -16.6180  -14.9950 C   0  0  2  0  0  0  0  0  0  0  0  0
   36.0040  -15.9920  -14.8180 N   0  0  0  0  0  0  0  0  0  0  0  0
   35.3800  -15.1250  -15.6830 C   0  0  0  0  0  0  0  0  0  0  0  0
   34.2020  -14.7470  -15.2680 N   0  0  0  0  0  0  0  0  0  0  0  0
   34.0440  -15.4190  -14.0650 C   0  0  0  0  0  0  0  0  0  0  0  0
   32.9640  -15.4040  -13.1560 C   0  0  0  0  0  0  0  0  0  0  0  0
   31.9040  -14.7700  -13.2430 O   0  0  0  0  0  0  0  0  0  0  0  0
   33.2240  -16.2330  -12.0650 N   0  0  0  0  0  0  0  0  0  0  0  0
   34.3690  -16.9770  -11.8750 C   0  0  1  0  0  3  0  0  0  0  0  0
   34.4220  -17.7130  -10.7550 N   0  0  0  0  0  0  0  0  0  0  0  0
   35.3870  -17.0010  -12.7190 N   0  0  0  0  0  0  0  0  0  0  0  0
   35.1500  -16.1960  -13.7760 C   0  0  0  0  0  0  0  0  0  0  0  0
   40.8570  -19.2010  -16.0140 P   0  0  2  0  0  0  0  0  0  0  0  0
   40.4430  -20.3490  -16.8640 O   0  0  0  0  0  1  0  0  0  0  0  0
   41.7030  -19.4160  -14.8120 O   0  0  0  0  0  0  0  0  0  0  0  0
   41.5910  -18.1310  -16.9410 O   0  0  0  0  0  0  0  0  0  0  0  0
   42.6760  -17.3640  -16.4300 C   0  0  0  0  0  0  0  0  0  0  0  0
   43.1360  -16.3000  -17.3970 C   0  0  1  0  0  0  0  0  0  0  0  0
   42.0360  -15.3900  -17.6780 O   0  0  0  0  0  0  0  0  0  0  0  0
   44.2790  -15.4320  -16.8870 C   0  0  1  0  0  0  0  0  0  0  0  0
   45.1080  -15.0460  -17.9810 O   0  0  0  0  0  0  0  0  0  0  0  0
   43.5520  -14.2100  -16.3410 C   0  0  1  0  0  0  0  0  0  0  0  0
   44.3450  -13.0530  -16.2810 O   0  0  0  0  0  0  0  0  0  0  0  0
   42.4090  -14.0690  -17.3370 C   0  0  2  0  0  0  0  0  0  0  0  0
   41.2150  -13.3930  -16.8180 N   0  0  0  0  0  0  0  0  0  0  0  0
   40.5080  -12.4310  -17.4980 C   0  0  0  0  0  0  0  0  0  0  0  0
   39.4680  -11.9930  -16.8470 N   0  0  0  0  0  0  0  0  0  0  0  0
   39.4720  -12.7120  -15.6520 C   0  0  0  0  0  0  0  0  0  0  0  0
   38.5680  -12.6620  -14.5480 C   0  0  0  0  0  0  0  0  0  0  0  0
   37.5640  -11.9500  -14.3780 O   0  0  0  0  0  0  0  0  0  0  0  0
   38.9380  -13.5500  -13.5510 N   0  0  0  0  0  0  0  0  0  0  0  0
   40.0240  -14.3840  -13.6110 C   0  0  2  0  0  3  0  0  0  0  0  0
   40.2040  -15.1650  -12.5380 N   0  0  0  0  0  0  0  0  0  0  0  0
   40.8690  -14.4430  -14.6290 N   0  0  0  0  0  0  0  0  0  0  0  0
   40.5450  -13.5830  -15.6160 C   0  0  0  0  0  0  0  0  0  0  0  0
   46.5570  -15.7180  -18.1610 P   0  0  2  0  0  0  0  0  0  0  0  0
   47.3110  -14.9150  -19.1540 O   0  0  0  0  0  1  0  0  0  0  0  0
   46.3770  -17.1900  -18.2910 O   0  0  0  0  0  0  0  0  0  0  0  0
   47.2630  -15.4600  -16.7650 O   0  0  0  0  0  0  0  0  0  0  0  0
   47.6640  -14.1520  -16.3870 C   0  0  0  0  0  0  0  0  0  0  0  0
   48.9440  -14.1970  -15.5970 C   0  0  1  0  0  0  0  0  0  0  0  0
   48.7960  -15.1430  -14.5050 O   0  0  0  0  0  0  0  0  0  0  0  0
   50.1630  -14.6470  -16.3830 C   0  0  1  0  0  0  0  0  0  0  0  0
   51.2960  -13.9790  -15.8690 O   0  0  0  0  0  0  0  0  0  0  0  0
   50.2740  -16.1260  -16.0370 C   0  0  1  0  0  0  0  0  0  0  0  0
   51.5810  -16.6410  -16.1440 O   0  0  0  0  0  0  0  0  0  0  0  0
   49.8010  -16.1370  -14.5920 C   0  0  2  0  0  0  0  0  0  0  0  0
   49.2210  -17.4140  -14.1620 N   0  0  0  0  0  0  0  0  0  0  0  0
   48.1530  -18.0740  -14.7330 C   0  0  0  0  0  0  0  0  0  0  0  0
   47.8450  -19.1910  -14.1270 N   0  0  0  0  0  0  0  0  0  0  0  0
   48.7640  -19.2780  -13.0870 C   0  0  0  0  0  0  0  0  0  0  0  0
   48.9220  -20.2840  -12.0930 C   0  0  0  0  0  0  0  0  0  0  0  0
   48.2610  -21.3190  -11.9350 O   0  0  0  0  0  0  0  0  0  0  0  0
   49.9760  -19.9860  -11.2350 N   0  0  0  0  0  0  0  0  0  0  0  0
   50.7690  -18.8680  -11.3250 C   0  0  1  0  0  3  0  0  0  0  0  0
   51.7230  -18.7780  -10.3930 N   0  0  0  0  0  0  0  0  0  0  0  0
   50.6430  -17.9170  -12.2500 N   0  0  0  0  0  0  0  0  0  0  0  0
   49.6200  -18.1850  -13.0920 C   0  0  0  0  0  0  0  0  0  0  0  0
   52.4710  -13.5840  -16.8660 P   0  0  2  0  0  0  0  0  0  0  0  0
   53.3910  -14.7480  -16.9920 O   0  0  0  0  0  1  0  0  0  0  0  0
   53.2390  -12.4260  -16.1110 O   0  0  0  0  0  0  0  0  0  0  0  0
   53.5760  -11.2430  -16.8070 C   0  0  0  0  0  0  0  0  0  0  0  0
   53.1860  -10.0310  -16.0170 C   0  0  2  0  0  0  0  0  0  0  0  0
   54.2340   -8.9290  -16.0290 C   0  0  1  0  0  0  0  0  0  0  0  0
   53.5750   -7.6750  -15.9020 O   0  0  0  0  0  0  0  0  0  0  0  0
   55.0330   -9.2280  -14.7660 C   0  0  1  0  0  0  0  0  0  0  0  0
   55.7610   -8.1330  -14.2470 O   0  0  0  0  0  0  0  0  0  0  0  0
   53.9260   -9.6850  -13.8200 C   0  0  1  0  0  0  0  0  0  0  0  0
   53.0130  -10.4110  -14.6220 O   0  0  0  0  0  0  0  0  0  0  0  0
   54.3800  -10.5460  -12.7200 N   0  0  0  0  0  0  0  0  0  0  0  0
   54.2940  -11.9070  -12.7740 C   0  0  0  0  0  0  0  0  0  0  0  0
   54.7120  -12.6690  -11.7490 C   0  0  0  0  0  0  0  0  0  0  0  0
   55.2390  -12.0120  -10.5990 C   0  0  1  0  0  3  0  0  0  0  0  0
   55.6610  -12.7270   -9.5490 N   0  0  0  0  0  0  0  0  0  0  0  0
   55.3300  -10.6830  -10.5370 N   0  0  0  0  0  0  0  0  0  0  0  0
   54.9010   -9.9260  -11.5830 C   0  0  0  0  0  0  0  0  0  0  0  0
   54.9580   -8.6850  -11.5800 O   0  0  0  0  0  0  0  0  0  0  0  0
   51.8220  -12.9700  -18.0530 O   0  0  0  0  0  0  0  0  0  0  0  0
   54.2600   -6.3580  -16.4940 P   0  0  0  0  0  0  0  0  0  0  0  0
   54.3320   -5.3880  -15.3710 O   0  0  0  0  0  1  0  0  0  0  0  0
   53.2130   -5.8410  -17.5870 O   0  0  0  0  0  1  0  0  0  0  0  0
   55.4850   -6.8010  -17.2080 O   0  0  0  0  0  0  0  0  0  0  0  0
   38.9544  -15.0030  -18.2785 H   0  0  0  0  0  0  0  0  0  0  0  0
   38.9830  -16.6981  -18.8721 H   0  0  0  0  0  0  0  0  0  0  0  0
   39.9312  -16.3127  -16.5878 H   0  0  0  0  0  0  0  0  0  0  0  0
   38.5793  -18.5788  -17.3755 H   0  0  0  0  0  0  0  0  0  0  0  0
   36.4234  -17.8573  -16.5511 H   0  0  0  0  0  0  0  0  0  0  0  0
   37.5826  -19.0631  -14.2571 H   0  0  0  0  0  0  0  0  0  0  0  0
   37.7679  -16.8051  -14.0144 H   0  0  0  0  0  0  0  0  0  0  0  0
   35.8233  -14.7880  -16.6189 H   0  0  0  0  0  0  0  0  0  0  0  0
   32.5184  -16.2930  -11.3590 H   0  0  0  0  0  0  0  0  0  0  0  0
   35.2517  -18.2903  -10.5569 H   0  0  0  0  0  0  0  0  0  0  0  0
   33.6330  -17.7009  -10.0930 H   0  0  0  0  0  0  0  0  0  0  0  0
   36.2435  -17.5579  -12.5876 H   0  0  0  0  0  0  0  0  0  0  0  0
   43.5186  -18.0396  -16.2216 H   0  0  0  0  0  0  0  0  0  0  0  0
   42.3560  -16.8780  -15.4965 H   0  0  0  0  0  0  0  0  0  0  0  0
   43.4554  -16.7967  -18.3250 H   0  0  0  0  0  0  0  0  0  0  0  0
   44.8706  -15.9411  -16.1119 H   0  0  0  0  0  0  0  0  0  0  0  0
   43.1654  -14.4152  -15.3318 H   0  0  0  0  0  0  0  0  0  0  0  0
   44.6482  -12.8327  -17.1539 H   0  0  0  0  0  0  0  0  0  0  0  0
   42.7673  -13.5250  -18.2234 H   0  0  0  0  0  0  0  0  0  0  0  0
   40.7898  -12.0695  -18.4859 H   0  0  0  0  0  0  0  0  0  0  0  0
   38.3715  -13.5850  -12.7277 H   0  0  0  0  0  0  0  0  0  0  0  0
   40.9980  -15.8202  -12.5053 H   0  0  0  0  0  0  0  0  0  0  0  0
   39.5484  -15.1104  -11.7455 H   0  0  0  0  0  0  0  0  0  0  0  0
   41.6820  -15.0745  -14.6631 H   0  0  0  0  0  0  0  0  0  0  0  0
   46.8750  -13.6960  -15.7709 H   0  0  0  0  0  0  0  0  0  0  0  0
   47.8190  -13.5459  -17.2918 H   0  0  0  0  0  0  0  0  0  0  0  0
   49.1346  -13.1904  -15.1964 H   0  0  0  0  0  0  0  0  0  0  0  0
   50.0527  -14.4761  -17.4640 H   0  0  0  0  0  0  0  0  0  0  0  0
   49.6070  -16.7224  -16.6768 H   0  0  0  0  0  0  0  0  0  0  0  0
   52.1554  -16.1694  -15.5522 H   0  0  0  0  0  0  0  0  0  0  0  0
   50.6452  -15.8900  -13.9315 H   0  0  0  0  0  0  0  0  0  0  0  0
   47.6177  -17.7007  -15.6048 H   0  0  0  0  0  0  0  0  0  0  0  0
   50.1706  -20.6336  -10.4983 H   0  0  0  0  0  0  0  0  0  0  0  0
   52.3627  -17.9708  -10.3871 H   0  0  0  0  0  0  0  0  0  0  0  0
   51.8184  -19.5159   -9.6807 H   0  0  0  0  0  0  0  0  0  0  0  0
   51.2470  -17.0852  -12.3150 H   0  0  0  0  0  0  0  0  0  0  0  0
   53.0481  -11.2296  -17.7720 H   0  0  0  0  0  0  0  0  0  0  0  0
   54.6617  -11.2248  -16.9826 H   0  0  0  0  0  0  0  0  0  0  0  0
   52.2424   -9.6364  -16.4219 H   0  0  0  0  0  0  0  0  0  0  0  0
   54.8606   -8.9540  -16.9327 H   0  0  0  0  0  0  0  0  0  0  0  0
   55.7431  -10.0466  -14.9547 H   0  0  0  0  0  0  0  0  0  0  0  0
   56.2268   -8.4058  -13.4652 H   0  0  0  0  0  0  0  0  0  0  0  0
   53.4339   -8.8005  -13.3892 H   0  0  0  0  0  0  0  0  0  0  0  0
   53.8801  -12.3830  -13.6617 H   0  0  0  0  0  0  0  0  0  0  0  0
   54.6500  -13.7552  -11.7955 H   0  0  0  0  0  0  0  0  0  0  0  0
   56.0412  -12.2489   -8.7197 H   0  0  0  0  0  0  0  0  0  0  0  0
   55.6055  -13.7553   -9.5704 H   0  0  0  0  0  0  0  0  0  0  0  0
   55.7125  -10.2440   -9.7240 H   0  0  0  0  0  0  0  0  0  0  0  0
  1  2  1  0  0  0  0
  2  3  1  0  0  0  0
  2  4  2  0  0  0  0
  2  5  1  0  0  0  0
  5  6  1  0  0  0  0
  6  7  1  0  0  0  0
  6 95  1  0  0  0  0
  6 96  1  0  0  0  0
  7  8  1  0  0  0  0
  7  9  1  0  0  0  0
  7 97  1  1  0  0  0
  8 13  1  0  0  0  0
  9 10  1  0  0  0  0
  9 11  1  0  0  0  0
  9 98  1  6  0  0  0
 10 25  1  0  0  0  0
 11 12  1  0  0  0  0
 11 13  1  0  0  0  0
 11 99  1  6  0  0  0
 12100  1  0  0  0  0
 13 14  1  0  0  0  0
 13101  1  1  0  0  0
 14 15  1  0  0  0  0
 14 24  1  0  0  0  0
 15 16  2  0  0  0  0
 15102  1  0  0  0  0
 16 17  1  0  0  0  0
 17 18  1  0  0  0  0
 17 24  2  0  0  0  0
 18 19  2  0  0  0  0
 18 20  1  0  0  0  0
 20 21  1  0  0  0  0
 20103  1  0  0  0  0
 21 22  1  6  0  0  0
 21 23  1  0  0  0  0
 22104  1  0  0  0  0
 22105  1  0  0  0  0
 23 24  1  0  0  0  0
 23106  1  0  0  0  0
 25 26  1  6  0  0  0
 25 27  2  0  0  0  0
 25 28  1  0  0  0  0
 28 29  1  0  0  0  0
 29 30  1  0  0  0  0
 29107  1  0  0  0  0
 29108  1  0  0  0  0
 30 31  1  0  0  0  0
 30 32  1  0  0  0  0
 30109  1  6  0  0  0
 31 36  1  0  0  0  0
 32 33  1  0  0  0  0
 32 34  1  0  0  0  0
 32110  1  1  0  0  0
 33 48  1  0  0  0  0
 34 35  1  0  0  0  0
 34 36  1  0  0  0  0
 34111  1  1  0  0  0
 35112  1  0  0  0  0
 36 37  1  0  0  0  0
 36113  1  6  0  0  0
 37 38  1  0  0  0  0
 37 47  1  0  0  0  0
 38 39  2  0  0  0  0
 38114  1  0  0  0  0
 39 40  1  0  0  0  0
 40 41  1  0  0  0  0
 40 47  2  0  0  0  0
 41 42  2  0  0  0  0
 41 43  1  0  0  0  0
 43 44  1  0  0  0  0
 43115  1  0  0  0  0
 44 45  1  1  0  0  0
 44 46  1  0  0  0  0
 45116  1  0  0  0  0
 45117  1  0  0  0  0
 46 47  1  0  0  0  0
 46118  1  0  0  0  0
 48 49  1  6  0  0  0
 48 50  2  0  0  0  0
 48 51  1  0  0  0  0
 51 52  1  0  0  0  0
 52 53  1  0  0  0  0
 52119  1  0  0  0  0
 52120  1  0  0  0  0
 53 54  1  0  0  0  0
 53 55  1  0  0  0  0
 53121  1  1  0  0  0
 54 59  1  0  0  0  0
 55 56  1  0  0  0  0
 55 57  1  0  0  0  0
 55122  1  6  0  0  0
 56 71  1  0  0  0  0
 57 58  1  0  0  0  0
 57 59  1  0  0  0  0
 57123  1  6  0  0  0
 58124  1  0  0  0  0
 59 60  1  0  0  0  0
 59125  1  1  0  0  0
 60 61  1  0  0  0  0
 60 70  1  0  0  0  0
 61 62  2  0  0  0  0
 61126  1  0  0  0  0
 62 63  1  0  0  0  0
 63 64  1  0  0  0  0
 63 70  2  0  0  0  0
 64 65  2  0  0  0  0
 64 66  1  0  0  0  0
 66 67  1  0  0  0  0
 66127  1  0  0  0  0
 67 68  1  6  0  0  0
 67 69  1  0  0  0  0
 68128  1  0  0  0  0
 68129  1  0  0  0  0
 69 70  1  0  0  0  0
 69130  1  0  0  0  0
 71 72  1  6  0  0  0
 71 73  1  0  0  0  0
 71 90  2  0  0  0  0
 73 74  1  0  0  0  0
 74 75  1  0  0  0  0
 74131  1  0  0  0  0
 74132  1  0  0  0  0
 75 76  1  0  0  0  0
 75 81  1  0  0  0  0
 75133  1  6  0  0  0
 76 77  1  0  0  0  0
 76 78  1  0  0  0  0
 76134  1  6  0  0  0
 77 91  1  0  0  0  0
 78 79  1  0  0  0  0
 78 80  1  0  0  0  0
 78135  1  6  0  0  0
 79136  1  0  0  0  0
 80 81  1  0  0  0  0
 80 82  1  0  0  0  0
 80137  1  1  0  0  0
 82 83  1  0  0  0  0
 82 88  1  0  0  0  0
 83 84  2  0  0  0  0
 83138  1  0  0  0  0
 84 85  1  0  0  0  0
 84139  1  0  0  0  0
 85 86  1  6  0  0  0
 85 87  1  0  0  0  0
 86140  1  0  0  0  0
 86141  1  0  0  0  0
 87 88  1  0  0  0  0
 87142  1  0  0  0  0
 88 89  2  0  0  0  0
 91 92  1  0  0  0  0
 91 93  1  0  0  0  0
 91 94  2  0  0  0  0
M  END
