4i6h_ligand
 OpenBabel08222323353D

 52 56  0  0  1  0  0  0  0  0999 V2000
   13.7190    4.1170   10.1560 O   0  0  0  0  0  0  0  0  0  0  0  0
   12.6470    4.7280   10.2210 C   0  0  0  0  0  0  0  0  0  0  0  0
   11.4290    4.0220   10.0570 N   0  0  0  0  0  0  0  0  0  0  0  0
   11.4480    2.5900    9.7820 C   0  0  0  0  0  0  0  0  0  0  0  0
   10.2200    4.7080   10.0900 C   0  0  0  0  0  0  0  0  0  0  0  0
   12.6810    6.1780   10.4590 C   0  0  1  0  0  0  0  0  0  0  0  0
   13.4640    6.8790    9.3500 C   0  0  0  0  0  0  0  0  0  0  0  0
   12.8110    6.8680    7.9960 C   0  0  0  0  0  0  0  0  0  0  0  0
   11.4000    6.8470   10.5220 N   0  0  0  0  0  0  0  0  0  0  0  0
   11.3590    8.2610   10.8260 C   0  0  0  0  0  0  0  0  0  0  0  0
   11.3430    9.3510    9.7660 C   0  0  0  0  0  0  0  0  0  0  0  0
   11.9910   10.5470   10.4440 C   0  0  0  0  0  0  0  0  0  0  0  0
   12.6490   10.0870   11.7400 C   0  0  0  0  0  0  0  0  0  0  0  0
   12.3450    8.6210   11.9150 C   0  0  0  0  0  0  0  0  0  0  0  0
   10.2220    6.1480   10.3360 C   0  0  0  0  0  0  0  0  0  0  0  0
    9.0650    6.7850   10.3830 N   0  0  0  0  0  0  0  0  0  0  0  0
    7.9150    6.1180   10.2400 C   0  0  0  0  0  0  0  0  0  0  0  0
    7.8890    4.8060    9.9920 N   0  0  0  0  0  0  0  0  0  0  0  0
    9.0010    4.0900    9.9040 C   0  0  0  0  0  0  0  0  0  0  0  0
    6.7890    6.7850   10.2650 N   0  0  0  0  0  0  0  0  0  0  0  0
    5.8230    6.4940    9.4430 C   0  0  0  0  0  0  0  0  0  0  0  0
    4.8280    7.4100    9.7070 C   0  0  0  0  0  0  0  0  0  0  0  0
    5.2380    8.2350   10.6630 N   0  0  0  0  0  0  0  0  0  0  0  0
    6.4710    7.8390   10.9530 C   0  0  0  0  0  0  0  0  0  0  0  0
    7.2610    8.5140   12.0130 C   0  0  0  0  0  0  0  0  0  0  0  0
    7.8530    7.7130   12.9620 C   0  0  0  0  0  0  0  0  0  0  0  0
    8.5830    8.9010   13.9330 S   0  0  0  0  0  0  0  0  0  0  0  0
    8.0650   10.2810   13.0560 C   0  0  0  0  0  0  0  0  0  0  0  0
    7.3370    9.8640   12.0330 N   0  0  0  0  0  0  0  0  0  0  0  0
   12.4864    2.2274    9.7974 H   0  0  0  0  0  0  0  0  0  0  0  0
   11.0083    2.4009    8.7916 H   0  0  0  0  0  0  0  0  0  0  0  0
   10.8637    2.0614   10.5496 H   0  0  0  0  0  0  0  0  0  0  0  0
   13.1938    6.3364   11.4192 H   0  0  0  0  0  0  0  0  0  0  0  0
   14.4420    6.3838    9.2594 H   0  0  0  0  0  0  0  0  0  0  0  0
   13.6102    7.9277    9.6481 H   0  0  0  0  0  0  0  0  0  0  0  0
   13.4530    7.3953    7.2751 H   0  0  0  0  0  0  0  0  0  0  0  0
   11.8352    7.3723    8.0554 H   0  0  0  0  0  0  0  0  0  0  0  0
   12.6670    5.8284    7.6667 H   0  0  0  0  0  0  0  0  0  0  0  0
   10.3691    8.3692   11.2933 H   0  0  0  0  0  0  0  0  0  0  0  0
   10.3115    9.5860    9.4648 H   0  0  0  0  0  0  0  0  0  0  0  0
   11.9219    9.0435    8.8827 H   0  0  0  0  0  0  0  0  0  0  0  0
   11.2248   11.3038   10.6679 H   0  0  0  0  0  0  0  0  0  0  0  0
   12.7515   10.9810    9.7782 H   0  0  0  0  0  0  0  0  0  0  0  0
   12.2435   10.6573   12.5887 H   0  0  0  0  0  0  0  0  0  0  0  0
   13.7368   10.2394   11.6822 H   0  0  0  0  0  0  0  0  0  0  0  0
   13.2640    8.0259   11.8092 H   0  0  0  0  0  0  0  0  0  0  0  0
   11.9023    8.4391   12.9054 H   0  0  0  0  0  0  0  0  0  0  0  0
    8.9528    3.0288    9.6879 H   0  0  0  0  0  0  0  0  0  0  0  0
    5.8048    5.6953    8.7029 H   0  0  0  0  0  0  0  0  0  0  0  0
    3.8596    7.4507    9.2106 H   0  0  0  0  0  0  0  0  0  0  0  0
    7.8536    6.6286   13.0621 H   0  0  0  0  0  0  0  0  0  0  0  0
    8.2948   11.3175   13.2984 H   0  0  0  0  0  0  0  0  0  0  0  0
  1  2  2  0  0  0  0
  2  3  1  0  0  0  0
  2  6  1  0  0  0  0
  3  4  1  0  0  0  0
  3  5  1  0  0  0  0
  4 30  1  0  0  0  0
  4 31  1  0  0  0  0
  4 32  1  0  0  0  0
  5 15  2  0  0  0  0
  5 19  1  0  0  0  0
  6  7  1  0  0  0  0
  6  9  1  0  0  0  0
  6 33  1  1  0  0  0
  7  8  1  0  0  0  0
  7 34  1  0  0  0  0
  7 35  1  0  0  0  0
  8 36  1  0  0  0  0
  8 37  1  0  0  0  0
  8 38  1  0  0  0  0
  9 10  1  0  0  0  0
  9 15  1  0  0  0  0
 10 11  1  0  0  0  0
 10 14  1  0  0  0  0
 10 39  1  0  0  0  0
 11 12  1  0  0  0  0
 11 40  1  0  0  0  0
 11 41  1  0  0  0  0
 12 13  1  0  0  0  0
 12 42  1  0  0  0  0
 12 43  1  0  0  0  0
 13 14  1  0  0  0  0
 13 44  1  0  0  0  0
 13 45  1  0  0  0  0
 14 46  1  0  0  0  0
 14 47  1  0  0  0  0
 15 16  1  0  0  0  0
 16 17  2  0  0  0  0
 17 18  1  0  0  0  0
 17 20  1  0  0  0  0
 18 19  2  0  0  0  0
 19 48  1  0  0  0  0
 20 21  1  0  0  0  0
 20 24  1  0  0  0  0
 21 22  2  0  0  0  0
 21 49  1  0  0  0  0
 22 23  1  0  0  0  0
 22 50  1  0  0  0  0
 23 24  2  0  0  0  0
 24 25  1  0  0  0  0
 25 26  2  0  0  0  0
 25 29  1  0  0  0  0
 26 27  1  0  0  0  0
 26 51  1  0  0  0  0
 27 28  1  0  0  0  0
 28 29  2  0  0  0  0
 28 52  1  0  0  0  0
M  END
