4i6q_ligand
 OpenBabel08222323353D

 42 45  0  0  1  0  0  0  0  0999 V2000
    0.5090  -13.2080   -4.1710 C   0  0  0  0  0  0  0  0  0  0  0  0
    0.0160  -11.9270   -3.8610 C   0  0  0  0  0  0  0  0  0  0  0  0
   -1.2630  -12.0820   -3.4430 N   0  0  0  0  0  0  0  0  0  0  0  0
   -0.5380  -14.1740   -3.8890 C   0  0  0  0  0  0  0  0  0  0  0  0
   -1.6410  -13.3940   -3.4540 C   0  0  0  0  0  0  0  0  0  0  0  0
   -2.8020  -13.9700   -3.1100 N   0  0  0  0  0  0  0  0  0  0  0  0
   -2.9150  -15.2870   -3.1930 C   0  0  0  0  0  0  0  0  0  0  0  0
   -1.8490  -16.0740   -3.6720 C   0  0  0  0  0  0  0  0  0  0  0  0
   -0.6730  -15.5440   -3.9710 N   0  0  0  0  0  0  0  0  0  0  0  0
    1.8040  -13.5650   -4.6850 C   0  0  0  0  0  0  0  0  0  0  0  0
    2.0280  -14.8860   -4.8890 N   0  0  0  0  0  0  0  0  0  0  0  0
    2.6720  -12.7520   -4.9000 O   0  0  0  0  0  0  0  0  0  0  0  0
    3.2620  -15.5060   -5.4140 C   0  0  2  0  0  0  0  0  0  0  0  0
    3.2850  -15.6750   -6.9440 C   0  0  0  0  0  0  0  0  0  0  0  0
    3.4490  -16.8740   -4.6640 C   0  0  0  0  0  0  0  0  0  0  0  0
    2.0070  -16.1400   -7.6250 C   0  0  0  0  0  0  0  0  0  0  0  0
    2.5270  -14.7340   -7.8900 C   0  0  0  0  0  0  0  0  0  0  0  0
   -2.0730  -17.4230   -3.6550 O   0  0  0  0  0  0  0  0  0  0  0  0
   -1.0910  -18.2510   -4.2050 C   0  0  0  0  0  0  0  0  0  0  0  0
   -0.4840  -18.0130   -5.4340 C   0  0  0  0  0  0  0  0  0  0  0  0
    0.4340  -18.9510   -5.9860 C   0  0  0  0  0  0  0  0  0  0  0  0
    0.7160  -20.1480   -5.3320 C   0  0  0  0  0  0  0  0  0  0  0  0
    0.0720  -20.4190   -4.1210 C   0  0  0  0  0  0  0  0  0  0  0  0
   -0.8450  -19.5100   -3.5670 C   0  0  0  0  0  0  0  0  0  0  0  0
    0.5606  -10.9874   -3.9420 H   0  0  0  0  0  0  0  0  0  0  0  0
   -1.8749  -11.3060   -3.1527 H   0  0  0  0  0  0  0  0  0  0  0  0
   -3.8390  -15.7653   -2.8887 H   0  0  0  0  0  0  0  0  0  0  0  0
    1.2784  -15.5070   -4.6598 H   0  0  0  0  0  0  0  0  0  0  0  0
    4.1060  -14.8509   -5.1523 H   0  0  0  0  0  0  0  0  0  0  0  0
    4.2630  -16.0728   -7.2525 H   0  0  0  0  0  0  0  0  0  0  0  0
    4.3611  -17.3698   -5.0276 H   0  0  0  0  0  0  0  0  0  0  0  0
    2.5793  -17.5195   -4.8563 H   0  0  0  0  0  0  0  0  0  0  0  0
    3.5376  -16.6905   -3.5831 H   0  0  0  0  0  0  0  0  0  0  0  0
    1.0911  -16.2834   -7.0330 H   0  0  0  0  0  0  0  0  0  0  0  0
    2.0538  -16.9006   -8.4183 H   0  0  0  0  0  0  0  0  0  0  0  0
    2.9525  -14.4800   -8.8720 H   0  0  0  0  0  0  0  0  0  0  0  0
    1.9898  -13.8629   -7.4868 H   0  0  0  0  0  0  0  0  0  0  0  0
   -0.7125  -17.1033   -5.9774 H   0  0  0  0  0  0  0  0  0  0  0  0
    0.9206  -18.7303   -6.9292 H   0  0  0  0  0  0  0  0  0  0  0  0
    1.4208  -20.8555   -5.7536 H   0  0  0  0  0  0  0  0  0  0  0  0
    0.2837  -21.3461   -3.6007 H   0  0  0  0  0  0  0  0  0  0  0  0
   -1.3690  -19.7625   -2.6523 H   0  0  0  0  0  0  0  0  0  0  0  0
  1  2  2  0  0  0  0
  1  4  1  0  0  0  0
  1 10  1  0  0  0  0
  2  3  1  0  0  0  0
  2 25  1  0  0  0  0
  3  5  1  0  0  0  0
  3 26  1  0  0  0  0
  4  5  2  0  0  0  0
  4  9  1  0  0  0  0
  5  6  1  0  0  0  0
  6  7  2  0  0  0  0
  7  8  1  0  0  0  0
  7 27  1  0  0  0  0
  8  9  2  0  0  0  0
  8 18  1  0  0  0  0
 10 11  1  0  0  0  0
 10 12  2  0  0  0  0
 11 13  1  0  0  0  0
 11 28  1  0  0  0  0
 13 14  1  0  0  0  0
 13 15  1  0  0  0  0
 13 29  1  1  0  0  0
 14 16  1  0  0  0  0
 14 17  1  0  0  0  0
 14 30  1  0  0  0  0
 15 31  1  0  0  0  0
 15 32  1  0  0  0  0
 15 33  1  0  0  0  0
 16 17  1  0  0  0  0
 16 34  1  0  0  0  0
 16 35  1  0  0  0  0
 17 36  1  0  0  0  0
 17 37  1  0  0  0  0
 18 19  1  0  0  0  0
 19 20  2  0  0  0  0
 19 24  1  0  0  0  0
 20 21  1  0  0  0  0
 20 38  1  0  0  0  0
 21 22  2  0  0  0  0
 21 39  1  0  0  0  0
 22 23  1  0  0  0  0
 22 40  1  0  0  0  0
 23 24  2  0  0  0  0
 23 41  1  0  0  0  0
 24 42  1  0  0  0  0
M  END
