4i73_ligand
 OpenBabel08222323353D

 36 38  0  0  1  0  0  0  0  0999 V2000
    0.4780   -5.7870   21.6870 O   0  0  0  0  0  0  0  0  0  0  0  0
    1.6510   -5.7520   21.3330 C   0  0  0  0  0  0  0  0  0  0  0  0
    2.2130   -6.7600   20.6160 N   0  0  0  0  0  0  0  0  0  0  0  0
    3.5190   -6.7430   20.2540 C   0  0  0  0  0  0  0  0  0  0  0  0
    4.2940   -5.7030   20.5300 N   0  0  0  0  0  0  0  0  0  0  0  0
    3.8450   -4.6420   21.2100 C   0  0  0  0  0  0  0  0  0  0  0  0
    2.4800   -4.5790   21.6550 C   0  0  0  0  0  0  0  0  0  0  0  0
    4.5540   -3.3820   21.6060 C   0  0  0  0  0  0  0  0  0  0  0  0
    3.7220   -2.5320   22.3240 C   0  0  0  0  0  0  0  0  0  0  0  0
    2.1240   -3.1650   22.4940 S   0  0  0  0  0  0  0  0  0  0  0  0
    6.0130   -3.0650   21.2970 C   0  0  0  0  0  0  0  0  0  0  0  0
    6.2610   -2.5960   19.9010 N   0  3  2  0  0  0  0  0  0  0  0  0
    6.2640   -1.1190   19.6150 C   0  0  2  0  0  0  0  0  0  0  0  0
    5.0280   -0.3770   20.1440 C   0  0  0  0  0  0  0  0  0  0  0  0
    5.2250    0.0250   21.5170 O   0  0  0  0  0  0  0  0  0  0  0  0
    6.2960   -1.0740   18.0890 C   0  0  1  0  0  0  0  0  0  0  0  0
    7.6490   -0.8580   17.6230 O   0  0  0  0  0  0  0  0  0  0  0  0
    5.8210   -2.4670   17.6250 C   0  0  1  0  0  0  0  0  0  0  0  0
    6.8900   -3.1530   16.9740 O   0  0  0  0  0  0  0  0  0  0  0  0
    5.4540   -3.2360   18.8420 C   0  0  0  0  0  0  0  0  0  0  0  0
    1.6456   -7.5383   20.3471 H   0  0  0  0  0  0  0  0  0  0  0  0
    3.9393   -7.5985   19.7272 H   0  0  0  0  0  0  0  0  0  0  0  0
    4.0413   -1.5747   22.7334 H   0  0  0  0  0  0  0  0  0  0  0  0
    6.6058   -3.9765   21.4639 H   0  0  0  0  0  0  0  0  0  0  0  0
    6.3479   -2.2780   21.9887 H   0  0  0  0  0  0  0  0  0  0  0  0
    7.2089   -2.8923   19.7283 H   0  0  0  0  0  0  0  0  0  0  0  0
    7.1643   -0.6522   20.0410 H   0  0  0  0  0  0  0  0  0  0  0  0
    4.1540   -1.0422   20.0841 H   0  0  0  0  0  0  0  0  0  0  0  0
    4.8516    0.5168   19.5275 H   0  0  0  0  0  0  0  0  0  0  0  0
    5.9778    0.6019   21.5720 H   0  0  0  0  0  0  0  0  0  0  0  0
    5.6336   -0.2831   17.7073 H   0  0  0  0  0  0  0  0  0  0  0  0
    7.6553   -0.8320   16.6734 H   0  0  0  0  0  0  0  0  0  0  0  0
    4.9595   -2.3731   16.9475 H   0  0  0  0  0  0  0  0  0  0  0  0
    7.1740   -2.6508   16.2193 H   0  0  0  0  0  0  0  0  0  0  0  0
    4.3789   -3.1458   19.0564 H   0  0  0  0  0  0  0  0  0  0  0  0
    5.7182   -4.2981   18.7321 H   0  0  0  0  0  0  0  0  0  0  0  0
  1  2  2  0  0  0  0
  2  3  1  0  0  0  0
  2  7  1  0  0  0  0
  3  4  1  0  0  0  0
  3 21  1  0  0  0  0
  4  5  2  0  0  0  0
  4 22  1  0  0  0  0
  5  6  1  0  0  0  0
  6  7  2  0  0  0  0
  6  8  1  0  0  0  0
  7 10  1  0  0  0  0
  8  9  2  0  0  0  0
  8 11  1  0  0  0  0
  9 10  1  0  0  0  0
  9 23  1  0  0  0  0
 11 12  1  0  0  0  0
 11 24  1  0  0  0  0
 11 25  1  0  0  0  0
 12 13  1  0  0  0  0
 12 20  1  0  0  0  0
 12 26  1  6  0  0  0
 13 14  1  0  0  0  0
 13 16  1  0  0  0  0
 13 27  1  1  0  0  0
 14 15  1  0  0  0  0
 14 28  1  0  0  0  0
 14 29  1  0  0  0  0
 15 30  1  0  0  0  0
 16 17  1  0  0  0  0
 16 18  1  0  0  0  0
 16 31  1  6  0  0  0
 17 32  1  0  0  0  0
 18 19  1  0  0  0  0
 18 20  1  0  0  0  0
 18 33  1  6  0  0  0
 19 34  1  0  0  0  0
 20 35  1  0  0  0  0
 20 36  1  0  0  0  0
M  CHG  1  12   1
M  END
