4i9r_ligand
 OpenBabel08222323353D

 50 50  0  0  0  0  0  0  0  0999 V2000
  -37.5130   19.8770    8.1020 C   0  0  0  0  0  0  0  0  0  0  0  0
  -37.8570   20.5090    6.8470 C   0  0  0  0  0  0  0  0  0  0  0  0
  -38.8750   21.5770    7.0980 C   0  0  0  0  0  0  0  0  0  0  0  0
  -40.1730   20.9040    7.4430 C   0  0  0  0  0  0  0  0  0  0  0  0
  -39.9350   19.9360    8.5770 C   0  0  0  0  0  0  0  0  0  0  0  0
  -38.7230   19.4950    8.9080 C   0  0  0  0  0  0  0  0  0  0  0  0
  -38.6340   18.5680   10.0890 C   0  0  0  0  0  0  0  0  0  0  0  0
  -37.5280   18.4740   10.7890 C   0  0  0  0  0  0  0  0  0  0  0  0
  -37.4440   17.6140   11.9810 C   0  0  0  0  0  0  0  0  0  0  0  0
  -36.3880   17.7620   12.7800 C   0  0  0  0  0  0  0  0  0  0  0  0
  -36.2030   16.9590   13.9730 C   0  0  0  0  0  0  0  0  0  0  0  0
  -35.1980   17.2700   14.7780 C   0  0  0  0  0  0  0  0  0  0  0  0
  -34.9070   16.4890   15.9860 C   0  0  0  0  0  0  0  0  0  0  0  0
  -33.7780   16.7640   16.6660 C   0  0  0  0  0  0  0  0  0  0  0  0
  -33.4060   16.0090   17.8570 C   0  0  0  0  0  0  0  0  0  0  0  0
  -36.6320   18.7490    7.8720 C   0  0  0  0  0  0  0  0  0  0  0  0
  -36.7430   20.8930    8.9010 C   0  0  0  0  0  0  0  0  0  0  0  0
  -41.0930   19.5270    9.4330 C   0  0  0  0  0  0  0  0  0  0  0  0
  -38.5110   16.5780   12.2480 C   0  0  0  0  0  0  0  0  0  0  0  0
  -35.8570   15.4100   16.4260 C   0  0  0  0  0  0  0  0  0  0  0  0
  -38.2729   19.7585    6.1587 H   0  0  0  0  0  0  0  0  0  0  0  0
  -36.9565   20.9564    6.4011 H   0  0  0  0  0  0  0  0  0  0  0  0
  -39.0014   22.1927    6.1953 H   0  0  0  0  0  0  0  0  0  0  0  0
  -38.5504   22.2141    7.9339 H   0  0  0  0  0  0  0  0  0  0  0  0
  -40.5512   20.3591    6.5655 H   0  0  0  0  0  0  0  0  0  0  0  0
  -40.9104   21.6598    7.7512 H   0  0  0  0  0  0  0  0  0  0  0  0
  -39.4986   17.9670   10.3668 H   0  0  0  0  0  0  0  0  0  0  0  0
  -36.6530   19.0447   10.4814 H   0  0  0  0  0  0  0  0  0  0  0  0
  -35.6387   18.5112   12.5285 H   0  0  0  0  0  0  0  0  0  0  0  0
  -36.8685   16.1274   14.1998 H   0  0  0  0  0  0  0  0  0  0  0  0
  -34.5714   18.1275   14.5372 H   0  0  0  0  0  0  0  0  0  0  0  0
  -33.1291   17.5669   16.3195 H   0  0  0  0  0  0  0  0  0  0  0  0
  -32.4552   16.3947   18.2535 H   0  0  0  0  0  0  0  0  0  0  0  0
  -33.2905   14.9466   17.5965 H   0  0  0  0  0  0  0  0  0  0  0  0
  -34.1916   16.1163   18.6194 H   0  0  0  0  0  0  0  0  0  0  0  0
  -36.3793   18.2790    8.8339 H   0  0  0  0  0  0  0  0  0  0  0  0
  -35.7113   19.0970    7.3809 H   0  0  0  0  0  0  0  0  0  0  0  0
  -37.1369   18.0150    7.2268 H   0  0  0  0  0  0  0  0  0  0  0  0
  -37.3819   21.7670    9.0957 H   0  0  0  0  0  0  0  0  0  0  0  0
  -35.8540   21.2076    8.3347 H   0  0  0  0  0  0  0  0  0  0  0  0
  -36.4302   20.4473    9.8568 H   0  0  0  0  0  0  0  0  0  0  0  0
  -40.7478   18.8238   10.2052 H   0  0  0  0  0  0  0  0  0  0  0  0
  -41.8566   19.0400    8.8087 H   0  0  0  0  0  0  0  0  0  0  0  0
  -41.5255   20.4166    9.9142 H   0  0  0  0  0  0  0  0  0  0  0  0
  -39.2815   16.6350   11.4650 H   0  0  0  0  0  0  0  0  0  0  0  0
  -38.9704   16.7691   13.2290 H   0  0  0  0  0  0  0  0  0  0  0  0
  -38.0580   15.5756   12.2442 H   0  0  0  0  0  0  0  0  0  0  0  0
  -36.7051   15.3609   15.7272 H   0  0  0  0  0  0  0  0  0  0  0  0
  -36.2273   15.6372   17.4366 H   0  0  0  0  0  0  0  0  0  0  0  0
  -35.3338   14.4425   16.4361 H   0  0  0  0  0  0  0  0  0  0  0  0
  1  2  1  0  0  0  0
  1  6  1  0  0  0  0
  1 16  1  0  0  0  0
  1 17  1  0  0  0  0
  2  3  1  0  0  0  0
  2 21  1  0  0  0  0
  2 22  1  0  0  0  0
  3  4  1  0  0  0  0
  3 23  1  0  0  0  0
  3 24  1  0  0  0  0
  4  5  1  0  0  0  0
  4 25  1  0  0  0  0
  4 26  1  0  0  0  0
  5  6  2  0  0  0  0
  5 18  1  0  0  0  0
  6  7  1  0  0  0  0
  7  8  2  0  0  0  0
  7 27  1  0  0  0  0
  8  9  1  0  0  0  0
  8 28  1  0  0  0  0
  9 10  2  0  0  0  0
  9 19  1  0  0  0  0
 10 11  1  0  0  0  0
 10 29  1  0  0  0  0
 11 12  2  0  0  0  0
 11 30  1  0  0  0  0
 12 13  1  0  0  0  0
 12 31  1  0  0  0  0
 13 14  2  0  0  0  0
 13 20  1  0  0  0  0
 14 15  1  0  0  0  0
 14 32  1  0  0  0  0
 15 33  1  0  0  0  0
 15 34  1  0  0  0  0
 15 35  1  0  0  0  0
 16 36  1  0  0  0  0
 16 37  1  0  0  0  0
 16 38  1  0  0  0  0
 17 39  1  0  0  0  0
 17 40  1  0  0  0  0
 17 41  1  0  0  0  0
 18 42  1  0  0  0  0
 18 43  1  0  0  0  0
 18 44  1  0  0  0  0
 19 45  1  0  0  0  0
 19 46  1  0  0  0  0
 19 47  1  0  0  0  0
 20 48  1  0  0  0  0
 20 49  1  0  0  0  0
 20 50  1  0  0  0  0
M  END
