4i9z_ligand
 OpenBabel08222323353D

 64 66  0  0  1  0  0  0  0  0999 V2000
  -41.5040   14.4420   48.9880 C   0  0  0  0  0  0  0  0  0  0  0  0
  -40.2560   14.0480   49.7080 C   0  0  0  0  0  0  0  0  0  0  0  0
  -39.0870   14.7480   49.2230 N   0  3  1  0  0  0  0  0  0  0  0  0
  -37.7810   14.1780   49.5900 C   0  0  0  0  0  0  0  0  0  0  0  0
  -39.2550   15.3050   47.9060 C   0  0  0  0  0  0  0  0  0  0  0  0
  -40.0930   14.4180   47.0420 C   0  0  0  0  0  0  0  0  0  0  0  0
  -41.4320   14.2750   47.5540 N   0  3  2  0  0  0  0  0  0  0  0  0
  -42.5080   14.8770   46.7740 C   0  0  0  0  0  0  0  0  0  0  0  0
  -42.5990   14.7670   45.2710 C   0  0  0  0  0  0  0  0  0  0  0  0
  -41.7050   14.2860   44.5790 O   0  0  0  0  0  0  0  0  0  0  0  0
  -43.8410   15.3350   44.6020 C   0  0  0  0  0  0  0  0  0  0  0  0
  -43.8240   15.5780   43.2190 C   0  0  0  0  0  0  0  0  0  0  0  0
  -45.0000   15.6490   45.3550 C   0  0  0  0  0  0  0  0  0  0  0  0
  -46.1280   16.1810   44.7080 C   0  0  0  0  0  0  0  0  0  0  0  0
  -46.1010   16.4170   43.3300 C   0  0  0  0  0  0  0  0  0  0  0  0
  -47.1990   16.9480   42.6780 O   0  0  0  0  0  0  0  0  0  0  0  0
  -48.2950   17.4820   43.3530 C   0  0  0  0  0  0  0  0  0  0  0  0
  -49.3290   18.0810   42.4250 C   0  0  0  0  0  0  0  0  0  0  0  0
  -48.8110   18.9390   41.4360 C   0  0  0  0  0  0  0  0  0  0  0  0
  -44.9450   16.0890   42.5720 C   0  0  0  0  0  0  0  0  0  0  0  0
  -44.7940   16.3410   41.1010 C   0  0  0  0  0  0  0  0  0  0  0  0
  -44.3430   15.3830   40.2650 N   0  0  0  0  0  0  0  0  0  0  0  0
  -45.0250   17.6080   40.6460 N   0  0  0  0  0  0  0  0  0  0  0  0
  -44.8570   17.9290   39.3450 C   0  0  0  0  0  0  0  0  0  0  0  0
  -45.1230   19.2170   38.9280 O   0  0  0  0  0  0  0  0  0  0  0  0
  -44.4200   16.9730   38.4480 C   0  0  0  0  0  0  0  0  0  0  0  0
  -44.1390   17.4300   36.5800 Br  0  0  0  0  0  0  0  0  0  0  0  0
  -44.1530   15.6480   38.9690 C   0  0  0  0  0  0  0  0  0  0  0  0
  -43.6590   14.5220   38.0160 C   0  0  0  0  0  0  0  0  0  0  0  0
  -44.8460   13.7880   37.3930 C   0  0  0  0  0  0  0  0  0  0  0  0
  -42.6260   13.6300   38.5800 C   0  0  0  0  0  0  0  0  0  0  0  0
  -41.7080   15.5013   49.2032 H   0  0  0  0  0  0  0  0  0  0  0  0
  -42.3318   13.8248   49.3671 H   0  0  0  0  0  0  0  0  0  0  0  0
  -40.0993   12.9674   49.5751 H   0  0  0  0  0  0  0  0  0  0  0  0
  -40.3814   14.2716   50.7777 H   0  0  0  0  0  0  0  0  0  0  0  0
  -39.0953   15.5801   49.7918 H   0  0  0  0  0  0  0  0  0  0  0  0
  -36.9779   14.7972   49.1638 H   0  0  0  0  0  0  0  0  0  0  0  0
  -37.7036   13.1544   49.1949 H   0  0  0  0  0  0  0  0  0  0  0  0
  -37.6851   14.1564   50.6856 H   0  0  0  0  0  0  0  0  0  0  0  0
  -38.2660   15.4276   47.4403 H   0  0  0  0  0  0  0  0  0  0  0  0
  -39.7440   16.2865   47.9921 H   0  0  0  0  0  0  0  0  0  0  0  0
  -39.6238   13.4243   46.9923 H   0  0  0  0  0  0  0  0  0  0  0  0
  -40.1433   14.8507   46.0319 H   0  0  0  0  0  0  0  0  0  0  0  0
  -41.6115   13.2904   47.4341 H   0  0  0  0  0  0  0  0  0  0  0  0
  -42.4773   15.9537   46.9970 H   0  0  0  0  0  0  0  0  0  0  0  0
  -43.4420   14.4479   47.1656 H   0  0  0  0  0  0  0  0  0  0  0  0
  -42.9271   15.3650   42.6487 H   0  0  0  0  0  0  0  0  0  0  0  0
  -45.0161   15.4794   46.4255 H   0  0  0  0  0  0  0  0  0  0  0  0
  -47.0212   16.4090   45.2783 H   0  0  0  0  0  0  0  0  0  0  0  0
  -47.9377   18.2689   44.0336 H   0  0  0  0  0  0  0  0  0  0  0  0
  -48.7711   16.6805   43.9369 H   0  0  0  0  0  0  0  0  0  0  0  0
  -50.0440   18.6537   43.0340 H   0  0  0  0  0  0  0  0  0  0  0  0
  -49.8545   17.2565   41.9210 H   0  0  0  0  0  0  0  0  0  0  0  0
  -49.6343   19.3220   40.8151 H   0  0  0  0  0  0  0  0  0  0  0  0
  -48.1024   18.3841   40.8037 H   0  0  0  0  0  0  0  0  0  0  0  0
  -48.2918   19.7813   41.9166 H   0  0  0  0  0  0  0  0  0  0  0  0
  -45.3247   18.3124   41.2895 H   0  0  0  0  0  0  0  0  0  0  0  0
  -43.1592   15.0396   37.1840 H   0  0  0  0  0  0  0  0  0  0  0  0
  -44.4775   12.9969   36.7235 H   0  0  0  0  0  0  0  0  0  0  0  0
  -45.4566   14.4998   36.8182 H   0  0  0  0  0  0  0  0  0  0  0  0
  -45.4582   13.3389   38.1889 H   0  0  0  0  0  0  0  0  0  0  0  0
  -41.8119   14.2350   39.0058 H   0  0  0  0  0  0  0  0  0  0  0  0
  -42.2254   12.9840   37.7849 H   0  0  0  0  0  0  0  0  0  0  0  0
  -43.0711   13.0066   39.3695 H   0  0  0  0  0  0  0  0  0  0  0  0
  1  2  1  0  0  0  0
  1  7  1  0  0  0  0
  1 32  1  0  0  0  0
  1 33  1  0  0  0  0
  2  3  1  0  0  0  0
  2 34  1  0  0  0  0
  2 35  1  0  0  0  0
  3  4  1  0  0  0  0
  3  5  1  0  0  0  0
  3 36  1  1  0  0  0
  4 37  1  0  0  0  0
  4 38  1  0  0  0  0
  4 39  1  0  0  0  0
  5  6  1  0  0  0  0
  5 40  1  0  0  0  0
  5 41  1  0  0  0  0
  6  7  1  0  0  0  0
  6 42  1  0  0  0  0
  6 43  1  0  0  0  0
  7  8  1  0  0  0  0
  7 44  1  6  0  0  0
  8  9  1  0  0  0  0
  8 45  1  0  0  0  0
  8 46  1  0  0  0  0
  9 10  2  0  0  0  0
  9 11  1  0  0  0  0
 11 12  2  0  0  0  0
 11 13  1  0  0  0  0
 12 20  1  0  0  0  0
 12 47  1  0  0  0  0
 13 14  2  0  0  0  0
 13 48  1  0  0  0  0
 14 15  1  0  0  0  0
 14 49  1  0  0  0  0
 15 16  1  0  0  0  0
 15 20  2  0  0  0  0
 16 17  1  0  0  0  0
 17 18  1  0  0  0  0
 17 50  1  0  0  0  0
 17 51  1  0  0  0  0
 18 19  1  0  0  0  0
 18 52  1  0  0  0  0
 18 53  1  0  0  0  0
 19 54  1  0  0  0  0
 19 55  1  0  0  0  0
 19 56  1  0  0  0  0
 20 21  1  0  0  0  0
 21 22  2  0  0  0  0
 21 23  1  0  0  0  0
 22 28  1  0  0  0  0
 23 24  1  0  0  0  0
 23 57  1  0  0  0  0
 24 25  2  0  0  0  0
 24 26  1  0  0  0  0
 26 27  1  0  0  0  0
 26 28  2  0  0  0  0
 28 29  1  0  0  0  0
 29 30  1  0  0  0  0
 29 31  1  0  0  0  0
 29 58  1  0  0  0  0
 30 59  1  0  0  0  0
 30 60  1  0  0  0  0
 30 61  1  0  0  0  0
 31 62  1  0  0  0  0
 31 63  1  0  0  0  0
 31 64  1  0  0  0  0
M  CHG  2   3   1   7   1
M  END
