4ibm_ligand
 OpenBabel08222323353D

 35 39  0  0  0  0  0  0  0  0999 V2000
    2.7030  -12.8020    9.7470 O   0  0  0  0  0  0  0  0  0  0  0  0
    2.0280  -12.4600    8.5030 C   0  0  0  0  0  0  0  0  0  0  0  0
    0.8790  -13.0400    8.1270 N   0  0  0  0  0  0  0  0  0  0  0  0
    0.5590  -12.4610    6.8800 N   0  0  0  0  0  0  0  0  0  0  0  0
    1.4590  -11.5290    6.5130 C   0  0  0  0  0  0  0  0  0  0  0  0
    1.5750  -10.7400    5.4320 N   0  0  0  0  0  0  0  0  0  0  0  0
    2.5060  -11.4650    7.5420 C   0  0  0  0  0  0  0  0  0  0  0  0
    3.5840  -10.6010    7.4530 C   0  0  0  0  0  0  0  0  0  0  0  0
    3.6170   -9.8040    6.3070 C   0  0  0  0  0  0  0  0  0  0  0  0
    2.6580   -9.8730    5.3510 N   0  0  0  0  0  0  0  0  0  0  0  0
    4.6890   -8.8180    6.0740 C   0  0  0  0  0  0  0  0  0  0  0  0
    4.9040   -8.0790    4.8150 C   0  0  0  0  0  0  0  0  0  0  0  0
    4.2830   -8.1330    3.5700 C   0  0  0  0  0  0  0  0  0  0  0  0
    4.7700   -7.2940    2.5690 C   0  0  0  0  0  0  0  0  0  0  0  0
    5.8620   -6.4670    2.8590 C   0  0  0  0  0  0  0  0  0  0  0  0
    6.4500   -6.4860    4.1230 C   0  0  0  0  0  0  0  0  0  0  0  0
    5.7130   -8.2890    7.0190 C   0  0  0  0  0  0  0  0  0  0  0  0
    6.4590   -7.3740    6.3540 N   0  0  0  0  0  0  0  0  0  0  0  0
    5.9450   -7.3030    5.0660 N   0  0  0  0  0  0  0  0  0  0  0  0
    5.9510   -8.6370    8.4380 C   0  0  0  0  0  0  0  0  0  0  0  0
    7.0540   -9.4080    8.7830 C   0  0  0  0  0  0  0  0  0  0  0  0
    5.0840   -8.1280    9.4020 C   0  0  0  0  0  0  0  0  0  0  0  0
    5.3080   -8.4250   10.7470 C   0  0  0  0  0  0  0  0  0  0  0  0
    6.4310   -9.1960   11.1030 C   0  0  0  0  0  0  0  0  0  0  0  0
    7.2900   -9.6890   10.1280 C   0  0  0  0  0  0  0  0  0  0  0  0
    4.3488  -10.5470    8.2193 H   0  0  0  0  0  0  0  0  0  0  0  0
    3.4472   -8.8062    3.3850 H   0  0  0  0  0  0  0  0  0  0  0  0
    4.3106   -7.2820    1.5817 H   0  0  0  0  0  0  0  0  0  0  0  0
    6.2554   -5.8032    2.0906 H   0  0  0  0  0  0  0  0  0  0  0  0
    7.3053   -5.8492    4.3441 H   0  0  0  0  0  0  0  0  0  0  0  0
    7.7217   -9.7858    8.0172 H   0  0  0  0  0  0  0  0  0  0  0  0
    4.2441   -7.5077    9.1105 H   0  0  0  0  0  0  0  0  0  0  0  0
    4.6253   -8.0663   11.5088 H   0  0  0  0  0  0  0  0  0  0  0  0
    6.6276   -9.4072   12.1479 H   0  0  0  0  0  0  0  0  0  0  0  0
    8.1441  -10.2924   10.4135 H   0  0  0  0  0  0  0  0  0  0  0  0
  1  2  2  0  0  0  0
  2  3  1  0  0  0  0
  2  7  1  0  0  0  0
  3  4  2  0  0  0  0
  4  5  1  0  0  0  0
  5  6  2  0  0  0  0
  5  7  1  0  0  0  0
  6 10  1  0  0  0  0
  7  8  2  0  0  0  0
  8  9  1  0  0  0  0
  8 26  1  0  0  0  0
  9 10  2  0  0  0  0
  9 11  1  0  0  0  0
 11 12  2  0  0  0  0
 11 17  1  0  0  0  0
 12 13  1  0  0  0  0
 12 19  1  0  0  0  0
 13 14  2  0  0  0  0
 13 27  1  0  0  0  0
 14 15  1  0  0  0  0
 14 28  1  0  0  0  0
 15 16  2  0  0  0  0
 15 29  1  0  0  0  0
 16 19  1  0  0  0  0
 16 30  1  0  0  0  0
 17 18  2  0  0  0  0
 17 20  1  0  0  0  0
 18 19  1  0  0  0  0
 20 21  2  0  0  0  0
 20 22  1  0  0  0  0
 21 25  1  0  0  0  0
 21 31  1  0  0  0  0
 22 23  2  0  0  0  0
 22 32  1  0  0  0  0
 23 24  1  0  0  0  0
 23 33  1  0  0  0  0
 24 25  2  0  0  0  0
 24 34  1  0  0  0  0
 25 35  1  0  0  0  0
M  END
