4idt_ligand
 OpenBabel08222323353D

 33 36  0  0  0  0  0  0  0  0999 V2000
   95.0560   51.1900  118.5230 Br  0  0  0  0  0  0  0  0  0  0  0  0
   96.0790   50.1640  119.7540 C   0  0  0  0  0  0  0  0  0  0  0  0
   96.3100   48.8030  119.5650 C   0  0  0  0  0  0  0  0  0  0  0  0
   97.0740   48.1000  120.5040 C   0  0  0  0  0  0  0  0  0  0  0  0
   97.6000   48.7420  121.6140 C   0  0  0  0  0  0  0  0  0  0  0  0
   97.3710   50.0990  121.7990 C   0  0  0  0  0  0  0  0  0  0  0  0
   96.6150   50.8040  120.8700 C   0  0  0  0  0  0  0  0  0  0  0  0
   97.4430   46.7550  120.5690 C   0  0  0  0  0  0  0  0  0  0  0  0
   98.1990   46.6250  121.7280 C   0  0  0  0  0  0  0  0  0  0  0  0
   98.2820   47.8300  122.3370 N   0  0  0  0  0  0  0  0  0  0  0  0
   97.0970   45.7240  119.5400 C   0  0  0  0  0  0  0  0  0  0  0  0
   96.1940   46.1180  118.6170 N   0  0  0  0  0  0  0  0  0  0  0  0
   95.7970   45.3250  117.6090 C   0  0  0  0  0  0  0  0  0  0  0  0
   94.8800   45.7770  116.7260 N   0  0  0  0  0  0  0  0  0  0  0  0
   96.3090   44.0880  117.4840 N   0  0  0  0  0  0  0  0  0  0  0  0
   97.2120   43.6490  118.3640 C   0  0  0  0  0  0  0  0  0  0  0  0
   97.6500   44.4490  119.4150 C   0  0  0  0  0  0  0  0  0  0  0  0
   98.6740   43.8010  120.3310 C   0  0  0  0  0  0  0  0  0  0  0  0
   99.5730   44.7750  121.0550 C   0  0  0  0  0  0  0  0  0  0  0  0
   98.8450   45.3660  122.2370 C   0  0  0  0  0  0  0  0  0  0  0  0
   95.9021   48.2936  118.6994 H   0  0  0  0  0  0  0  0  0  0  0  0
   97.7804   50.6067  122.6649 H   0  0  0  0  0  0  0  0  0  0  0  0
   96.4402   51.8639  121.0151 H   0  0  0  0  0  0  0  0  0  0  0  0
   98.7864   48.0210  123.2145 H   0  0  0  0  0  0  0  0  0  0  0  0
   94.4915   46.7256  116.8271 H   0  0  0  0  0  0  0  0  0  0  0  0
   94.5693   45.1731  115.9516 H   0  0  0  0  0  0  0  0  0  0  0  0
   97.6127   42.6474  118.2574 H   0  0  0  0  0  0  0  0  0  0  0  0
   99.3062   43.1365  119.7237 H   0  0  0  0  0  0  0  0  0  0  0  0
   98.1345   43.2071  121.0835 H   0  0  0  0  0  0  0  0  0  0  0  0
   99.8659   45.5816  120.3668 H   0  0  0  0  0  0  0  0  0  0  0  0
  100.4725   44.2486  121.4069 H   0  0  0  0  0  0  0  0  0  0  0  0
   98.0817   44.6656  122.6068 H   0  0  0  0  0  0  0  0  0  0  0  0
   99.5527   45.5981  123.0465 H   0  0  0  0  0  0  0  0  0  0  0  0
  1  2  1  0  0  0  0
  2  3  2  0  0  0  0
  2  7  1  0  0  0  0
  3  4  1  0  0  0  0
  3 21  1  0  0  0  0
  4  5  2  0  0  0  0
  4  8  1  0  0  0  0
  5  6  1  0  0  0  0
  5 10  1  0  0  0  0
  6  7  2  0  0  0  0
  6 22  1  0  0  0  0
  7 23  1  0  0  0  0
  8  9  2  0  0  0  0
  8 11  1  0  0  0  0
  9 10  1  0  0  0  0
  9 20  1  0  0  0  0
 10 24  1  0  0  0  0
 11 12  2  0  0  0  0
 11 17  1  0  0  0  0
 12 13  1  0  0  0  0
 13 14  1  0  0  0  0
 13 15  2  0  0  0  0
 14 25  1  0  0  0  0
 14 26  1  0  0  0  0
 15 16  1  0  0  0  0
 16 17  2  0  0  0  0
 16 27  1  0  0  0  0
 17 18  1  0  0  0  0
 18 19  1  0  0  0  0
 18 28  1  0  0  0  0
 18 29  1  0  0  0  0
 19 20  1  0  0  0  0
 19 30  1  0  0  0  0
 19 31  1  0  0  0  0
 20 32  1  0  0  0  0
 20 33  1  0  0  0  0
M  END
