4idv_ligand
 OpenBabel08222323353D

 49 51  0  0  0  0  0  0  0  0999 V2000
   19.5890   10.9270   88.6120 N   0  0  0  0  0  0  0  0  0  0  0  0
   19.7440   12.1660   88.1280 C   0  0  0  0  0  0  0  0  0  0  0  0
   18.6350   12.8400   87.8910 N   0  0  0  0  0  0  0  0  0  0  0  0
   20.9710   12.5790   87.9580 N   0  0  0  0  0  0  0  0  0  0  0  0
   21.1440   13.8250   87.4710 C   0  0  0  0  0  0  0  0  0  0  0  0
   20.0640   14.6500   87.1370 C   0  0  0  0  0  0  0  0  0  0  0  0
   20.1930   15.9660   86.6530 O   0  0  0  0  0  0  0  0  0  0  0  0
   21.1930   16.5670   85.8670 C   0  0  0  0  0  0  0  0  0  0  0  0
   20.7460   17.9990   85.4810 C   0  0  0  0  0  0  0  0  0  0  0  0
   19.8450   18.1280   84.3770 O   0  0  0  0  0  0  0  0  0  0  0  0
   18.8890   19.1670   84.3330 C   0  0  0  0  0  0  0  0  0  0  0  0
   18.7510   14.1000   87.3960 C   0  0  0  0  0  0  0  0  0  0  0  0
   17.4830   14.8770   87.0480 C   0  0  0  0  0  0  0  0  0  0  0  0
   17.4360   16.1270   86.4700 C   0  0  0  0  0  0  0  0  0  0  0  0
   16.1650   16.4690   86.2600 N   0  0  0  0  0  0  0  0  0  0  0  0
   16.1520   14.4570   87.1460 C   0  0  0  0  0  0  0  0  0  0  0  0
   15.3260   15.4890   86.6500 C   0  0  0  0  0  0  0  0  0  0  0  0
   13.9440   15.4360   86.6140 C   0  0  0  0  0  0  0  0  0  0  0  0
   13.3290   14.3050   87.0880 C   0  0  0  0  0  0  0  0  0  0  0  0
   15.4880   13.3350   87.6150 C   0  0  0  0  0  0  0  0  0  0  0  0
   14.0940   13.2790   87.5980 C   0  0  0  0  0  0  0  0  0  0  0  0
   13.5040   12.1150   88.0770 C   0  0  0  0  0  0  0  0  0  0  0  0
   12.9780   11.0900   88.4670 C   0  0  0  0  0  0  0  0  0  0  0  0
   12.3450    9.8140   88.9100 C   0  0  0  0  0  0  0  0  0  0  0  0
   12.2530    9.8640   90.3890 C   0  0  0  0  0  0  0  0  0  0  0  0
   13.1870    8.6670   88.4140 C   0  0  0  0  0  0  0  0  0  0  0  0
   11.0750    9.7010   88.3860 O   0  0  0  0  0  0  0  0  0  0  0  0
   18.6434   10.5489   88.7663 H   0  0  0  0  0  0  0  0  0  0  0  0
   20.4154   10.3521   88.8299 H   0  0  0  0  0  0  0  0  0  0  0  0
   22.1520   14.1993   87.3339 H   0  0  0  0  0  0  0  0  0  0  0  0
   21.3509   15.9726   84.9550 H   0  0  0  0  0  0  0  0  0  0  0  0
   22.1309   16.6163   86.4396 H   0  0  0  0  0  0  0  0  0  0  0  0
   21.6516   18.5740   85.2378 H   0  0  0  0  0  0  0  0  0  0  0  0
   20.2562   18.4412   86.3611 H   0  0  0  0  0  0  0  0  0  0  0  0
   18.3016   19.0857   83.4065 H   0  0  0  0  0  0  0  0  0  0  0  0
   19.4028   20.1393   84.3572 H   0  0  0  0  0  0  0  0  0  0  0  0
   18.2181   19.0850   85.2009 H   0  0  0  0  0  0  0  0  0  0  0  0
   18.3019   16.7396   86.2234 H   0  0  0  0  0  0  0  0  0  0  0  0
   15.8632   17.3656   85.8527 H   0  0  0  0  0  0  0  0  0  0  0  0
   13.3640   16.2640   86.2227 H   0  0  0  0  0  0  0  0  0  0  0  0
   12.2487   14.2192   87.0614 H   0  0  0  0  0  0  0  0  0  0  0  0
   16.0557   12.4946   87.9979 H   0  0  0  0  0  0  0  0  0  0  0  0
   11.7896    8.9375   90.7590 H   0  0  0  0  0  0  0  0  0  0  0  0
   11.6394   10.7261   90.6893 H   0  0  0  0  0  0  0  0  0  0  0  0
   13.2617    9.9653   90.8159 H   0  0  0  0  0  0  0  0  0  0  0  0
   13.2172    8.6830   87.3145 H   0  0  0  0  0  0  0  0  0  0  0  0
   12.7499    7.7169   88.7550 H   0  0  0  0  0  0  0  0  0  0  0  0
   14.2085    8.7638   88.8103 H   0  0  0  0  0  0  0  0  0  0  0  0
   10.5565   10.4519   88.6505 H   0  0  0  0  0  0  0  0  0  0  0  0
  1  2  1  0  0  0  0
  1 28  1  0  0  0  0
  1 29  1  0  0  0  0
  2  3  2  0  0  0  0
  2  4  1  0  0  0  0
  3 12  1  0  0  0  0
  4  5  2  0  0  0  0
  5  6  1  0  0  0  0
  5 30  1  0  0  0  0
  6  7  1  0  0  0  0
  6 12  2  0  0  0  0
  7  8  1  0  0  0  0
  8  9  1  0  0  0  0
  8 31  1  0  0  0  0
  8 32  1  0  0  0  0
  9 10  1  0  0  0  0
  9 33  1  0  0  0  0
  9 34  1  0  0  0  0
 10 11  1  0  0  0  0
 11 35  1  0  0  0  0
 11 36  1  0  0  0  0
 11 37  1  0  0  0  0
 12 13  1  0  0  0  0
 13 14  2  0  0  0  0
 13 16  1  0  0  0  0
 14 15  1  0  0  0  0
 14 38  1  0  0  0  0
 15 17  1  0  0  0  0
 15 39  1  0  0  0  0
 16 17  2  0  0  0  0
 16 20  1  0  0  0  0
 17 18  1  0  0  0  0
 18 19  2  0  0  0  0
 18 40  1  0  0  0  0
 19 21  1  0  0  0  0
 19 41  1  0  0  0  0
 20 21  2  0  0  0  0
 20 42  1  0  0  0  0
 21 22  1  0  0  0  0
 22 23  3  0  0  0  0
 23 24  1  0  0  0  0
 24 25  1  0  0  0  0
 24 26  1  0  0  0  0
 24 27  1  0  0  0  0
 25 43  1  0  0  0  0
 25 44  1  0  0  0  0
 25 45  1  0  0  0  0
 26 46  1  0  0  0  0
 26 47  1  0  0  0  0
 26 48  1  0  0  0  0
 27 49  1  0  0  0  0
M  END
