4ie2_ligand
 OpenBabel08222323353D

 40 39  0  0  1  0  0  0  0  0999 V2000
   35.2100   89.1030   72.1650 O   0  5  0  0  0  0  0  0  0  0  0  0
   34.1470   88.6600   71.6660 C   0  0  0  0  0  0  0  0  0  0  0  0
   33.2160   89.4160   71.2990 O   0  0  0  0  0  0  0  0  0  0  0  0
   33.9640   87.1710   71.4990 C   0  0  2  0  0  0  0  0  0  0  0  0
   32.6610   86.9240   70.8600 N   0  3  0  0  0  0  0  0  0  0  0  0
   34.0130   86.4920   72.8700 C   0  0  0  0  0  0  0  0  0  0  0  0
   33.0670   87.1160   73.8880 C   0  0  0  0  0  0  0  0  0  0  0  0
   32.8910   86.1730   75.0780 C   0  0  0  0  0  0  0  0  0  0  0  0
   32.0450   85.0890   74.6580 O   0  0  0  0  0  0  0  0  0  0  0  0
   35.0820   86.5670   70.6600 C   0  0  0  0  0  0  0  0  0  0  0  0
   35.2640   87.2290   69.3010 C   0  0  0  0  0  0  0  0  0  0  0  0
   36.3430   86.5230   68.4710 C   0  0  0  0  0  0  0  0  0  0  0  0
   36.9610   87.4990   67.4670 C   0  0  0  0  0  0  0  0  0  0  0  0
   37.2660   86.8340   66.0550 B   0  5  0  0  0  0  0  0  0  0  0  0
   38.3930   85.8440   66.4050 O   0  3  0  0  0  2  0  0  0  0  0  0
   36.2770   85.8660   65.4450 O   0  0  0  0  0  0  0  0  0  0  0  0
   37.9710   87.7460   65.0790 O   0  0  0  0  0  0  0  0  0  0  0  0
   32.5269   85.9318   70.7429 H   0  0  0  0  0  0  0  0  0  0  0  0
   32.6379   87.3748   69.9587 H   0  0  0  0  0  0  0  0  0  0  0  0
   31.9260   87.2961   71.4408 H   0  0  0  0  0  0  0  0  0  0  0  0
   35.0397   86.5638   73.2583 H   0  0  0  0  0  0  0  0  0  0  0  0
   33.7415   85.4334   72.7448 H   0  0  0  0  0  0  0  0  0  0  0  0
   32.0895   87.2949   73.4163 H   0  0  0  0  0  0  0  0  0  0  0  0
   33.4856   88.0711   74.2379 H   0  0  0  0  0  0  0  0  0  0  0  0
   32.4223   86.7106   75.9154 H   0  0  0  0  0  0  0  0  0  0  0  0
   33.8696   85.7830   75.3944 H   0  0  0  0  0  0  0  0  0  0  0  0
   31.9201   84.4872   75.3824 H   0  0  0  0  0  0  0  0  0  0  0  0
   34.8568   85.5025   70.4986 H   0  0  0  0  0  0  0  0  0  0  0  0
   36.0242   86.6618   71.2197 H   0  0  0  0  0  0  0  0  0  0  0  0
   35.5583   88.2782   69.4512 H   0  0  0  0  0  0  0  0  0  0  0  0
   34.3104   87.1903   68.7541 H   0  0  0  0  0  0  0  0  0  0  0  0
   35.8901   85.6809   67.9273 H   0  0  0  0  0  0  0  0  0  0  0  0
   37.1289   86.1461   69.1420 H   0  0  0  0  0  0  0  0  0  0  0  0
   37.1422   88.4657   67.9594 H   0  0  0  0  0  0  0  0  0  0  0  0
   36.2713   87.6415   66.6221 H   0  0  0  0  0  0  0  0  0  0  0  0
   38.9562   85.1752   65.9197 H   0  0  0  0  0  0  0  0  0  0  0  0
   35.5973   86.3521   64.9932 H   0  0  0  0  0  0  0  0  0  0  0  0
   35.5973   86.3522   64.9932 H   0  0  0  0  0  0  0  0  0  0  0  0
   37.3283   88.2733   64.6191 H   0  0  0  0  0  0  0  0  0  0  0  0
   37.3283   88.2733   64.6192 H   0  0  0  0  0  0  0  0  0  0  0  0
  1  2  1  0  0  0  0
  2  3  2  0  0  0  0
  4  2  1  1  0  0  0
  4  5  1  0  0  0  0
  4  6  1  0  0  0  0
  4 10  1  0  0  0  0
  5 18  1  0  0  0  0
  5 19  1  0  0  0  0
  5 20  1  0  0  0  0
  6  7  1  0  0  0  0
  6 21  1  0  0  0  0
  6 22  1  0  0  0  0
  7  8  1  0  0  0  0
  7 23  1  0  0  0  0
  7 24  1  0  0  0  0
  8  9  1  0  0  0  0
  8 25  1  0  0  0  0
  8 26  1  0  0  0  0
  9 27  1  0  0  0  0
 10 11  1  0  0  0  0
 10 28  1  0  0  0  0
 10 29  1  0  0  0  0
 11 12  1  0  0  0  0
 11 30  1  0  0  0  0
 11 31  1  0  0  0  0
 12 13  1  0  0  0  0
 12 32  1  0  0  0  0
 12 33  1  0  0  0  0
 13 14  1  0  0  0  0
 13 34  1  0  0  0  0
 13 35  1  0  0  0  0
 14 16  1  0  0  0  0
 14 17  1  0  0  0  0
 14 15  1  0  0  0  0
 15 36  1  0  0  0  0
 16 37  1  0  0  0  0
 16 38  1  0  0  0  0
 17 39  1  0  0  0  0
 17 40  1  0  0  0  0
M  CHG  4   1  -1   5   1  14  -1  15   1
M  ZCH  2  14   0  15   0
M  HYD  1  15   0
M  ZBO  1  34   0
M  END
