4ie6_ligand
 OpenBabel08222323353D

 27 28  0  0  0  0  0  0  0  0999 V2000
   34.0630   -8.9380  -22.0890 O   0  5  0  0  0  0  0  0  0  0  0  0
   33.7560   -7.8190  -21.6960 C   0  0  0  0  0  0  0  0  0  0  0  0
   34.4600   -7.2550  -20.7290 O   0  0  0  0  0  0  0  0  0  0  0  0
   32.5890   -7.0950  -22.2750 C   0  0  0  0  0  0  0  0  0  0  0  0
   31.8960   -7.8440  -23.3070 N   0  0  0  0  0  0  0  0  0  0  0  0
   31.1470   -7.0600  -24.0530 C   0  0  0  0  0  0  0  0  0  0  0  0
   31.1180   -5.8770  -23.7740 O   0  0  0  0  0  0  0  0  0  0  0  0
   30.4040   -7.3820  -25.3000 C   0  0  0  0  0  0  0  0  0  0  0  0
   29.0930   -7.0690  -25.4090 N   0  0  0  0  0  0  0  0  0  0  0  0
   28.4240   -7.2760  -26.5660 C   0  0  0  0  0  0  0  0  0  0  0  0
   26.6610   -6.9010  -26.6770 Cl  0  0  0  0  0  0  0  0  0  0  0  0
   29.1070   -7.7890  -27.6620 C   0  0  0  0  0  0  0  0  0  0  0  0
   31.1080   -7.8640  -26.3780 C   0  0  0  0  0  0  0  0  0  0  0  0
   32.4290   -8.1580  -26.2700 O   0  0  0  0  0  0  0  0  0  0  0  0
   30.4470   -8.0900  -27.5680 C   0  0  0  0  0  0  0  0  0  0  0  0
   31.1410   -8.5960  -28.6510 C   0  0  0  0  0  0  0  0  0  0  0  0
   30.4930   -8.8230  -29.8450 C   0  0  0  0  0  0  0  0  0  0  0  0
   29.1520   -8.5260  -29.9430 C   0  0  0  0  0  0  0  0  0  0  0  0
   28.4580   -8.0150  -28.8560 C   0  0  0  0  0  0  0  0  0  0  0  0
   32.9468   -6.1507  -22.7112 H   0  0  0  0  0  0  0  0  0  0  0  0
   31.8771   -6.8782  -21.4650 H   0  0  0  0  0  0  0  0  0  0  0  0
   31.9774   -8.8324  -23.4353 H   0  0  0  0  0  0  0  0  0  0  0  0
   32.7507   -8.4764  -27.1052 H   0  0  0  0  0  0  0  0  0  0  0  0
   32.1988   -8.8149  -28.5603 H   0  0  0  0  0  0  0  0  0  0  0  0
   31.0303   -9.2291  -30.6944 H   0  0  0  0  0  0  0  0  0  0  0  0
   28.6330   -8.6933  -30.8798 H   0  0  0  0  0  0  0  0  0  0  0  0
   27.4009   -7.7927  -28.9464 H   0  0  0  0  0  0  0  0  0  0  0  0
  1  2  1  0  0  0  0
  2  3  2  0  0  0  0
  2  4  1  0  0  0  0
  4  5  1  0  0  0  0
  4 20  1  0  0  0  0
  4 21  1  0  0  0  0
  5  6  1  0  0  0  0
  5 22  1  0  0  0  0
  6  7  2  0  0  0  0
  6  8  1  0  0  0  0
  8  9  2  0  0  0  0
  8 13  1  0  0  0  0
  9 10  1  0  0  0  0
 10 11  1  0  0  0  0
 10 12  2  0  0  0  0
 12 15  1  0  0  0  0
 12 19  1  0  0  0  0
 13 14  1  0  0  0  0
 13 15  2  0  0  0  0
 14 23  1  0  0  0  0
 15 16  1  0  0  0  0
 16 17  2  0  0  0  0
 16 24  1  0  0  0  0
 17 18  1  0  0  0  0
 17 25  1  0  0  0  0
 18 19  2  0  0  0  0
 18 26  1  0  0  0  0
 19 27  1  0  0  0  0
M  CHG  1   1  -1
M  END
