4ifi_ligand
 OpenBabel08222323353D

102103  0  0  1  0  0  0  0  0999 V2000
  -11.0420   14.2170  -26.5350 N   0  3  0  0  0  0  0  0  0  0  0  0
  -11.9950   14.4370  -27.6600 C   0  0  2  0  0  0  0  0  0  0  0  0
  -13.4460   14.8370  -27.1940 C   0  0  0  0  0  0  0  0  0  0  0  0
  -13.9340   15.9080  -27.5830 O   0  0  0  0  0  0  0  0  0  0  0  0
  -11.9820   13.2490  -28.6330 C   0  0  0  0  0  0  0  0  0  0  0  0
  -12.8760   13.4390  -29.8440 C   0  0  0  0  0  0  0  0  0  0  0  0
  -12.2610   14.3560  -30.8910 C   0  0  0  0  0  0  0  0  0  0  0  0
  -11.5250   13.5720  -31.8850 N   0  0  0  0  0  0  0  0  0  0  0  0
  -10.3070   13.0360  -31.7290 C   0  0  0  0  0  3  0  0  0  0  0  0
   -9.6090   13.1740  -30.5980 N   0  0  0  0  0  0  0  0  0  0  0  0
   -9.7720   12.3430  -32.7330 N   0  0  0  0  0  0  0  0  0  0  0  0
  -14.1280   14.0340  -26.3680 N   0  0  0  0  0  0  0  0  0  0  0  0
  -15.5350   14.3950  -25.9400 C   0  0  1  0  0  0  0  0  0  0  0  0
  -16.1640   13.3200  -25.0360 C   0  0  0  0  0  0  0  0  0  0  0  0
  -16.8360   12.2790  -25.7850 O   0  0  0  0  0  0  0  0  0  0  0  0
  -15.5560   15.6650  -25.1080 C   0  0  0  0  0  0  0  0  0  0  0  0
  -14.8660   15.7250  -24.1020 O   0  0  0  0  0  0  0  0  0  0  0  0
  -17.1910   10.8970  -25.0150 P   0  0  0  0  0  0  0  0  0  0  0  0
  -17.8870   10.1250  -26.0970 O   0  0  0  0  0  1  0  0  0  0  0  0
  -15.8920   10.3910  -24.3900 O   0  0  0  0  0  1  0  0  0  0  0  0
  -18.1390   11.3100  -23.9300 O   0  0  0  0  0  0  0  0  0  0  0  0
  -16.3470   16.6940  -25.4840 N   0  0  0  0  0  0  0  0  0  0  0  0
  -16.2310   17.9190  -24.6350 C   0  0  2  0  0  0  0  0  0  0  0  0
  -16.5420   17.7180  -23.1360 C   0  0  0  0  0  0  0  0  0  0  0  0
  -17.4170   16.9020  -22.7670 O   0  0  0  0  0  0  0  0  0  0  0  0
  -17.2300   18.8900  -25.2740 C   0  0  0  0  0  0  0  0  0  0  0  0
  -17.3960   18.4070  -26.6990 C   0  0  0  0  0  0  0  0  0  0  0  0
  -17.2760   16.9010  -26.6180 C   0  0  0  0  0  0  0  0  0  0  0  0
  -15.8200   18.4570  -22.2830 N   0  0  0  0  0  0  0  0  0  0  0  0
  -16.0210   18.4950  -20.8200 C   0  0  2  0  0  0  0  0  0  0  0  0
  -16.6990   19.8240  -20.4910 C   0  0  0  0  0  0  0  0  0  0  0  0
  -16.5510   20.8020  -21.2250 O   0  0  0  0  0  0  0  0  0  0  0  0
  -14.6780   18.3530  -20.0340 C   0  0  0  0  0  0  0  0  0  0  0  0
  -14.8670   18.5900  -18.5360 C   0  0  0  0  0  0  0  0  0  0  0  0
  -14.0170   16.9740  -20.2870 C   0  0  0  0  0  0  0  0  0  0  0  0
  -17.4810   19.8450  -19.4150 N   0  0  0  0  0  0  0  0  0  0  0  0
  -18.2730   21.0200  -19.0700 C   0  0  2  0  0  0  0  0  0  0  0  0
  -17.9270   21.3740  -17.6680 C   0  0  0  0  0  0  0  0  0  0  0  0
  -18.4060   20.7500  -16.7360 O   0  0  0  0  0  0  0  0  0  0  0  0
  -19.7870   20.7420  -19.2620 C   0  0  0  0  0  0  0  0  0  0  0  0
  -20.1410   20.5530  -20.7010 C   0  0  0  0  0  0  0  0  0  0  0  0
  -20.3100   21.6520  -21.5300 C   0  0  0  0  0  0  0  0  0  0  0  0
  -20.1880   19.2710  -21.2660 C   0  0  0  0  0  0  0  0  0  0  0  0
  -20.5520   21.4780  -22.8820 C   0  0  0  0  0  0  0  0  0  0  0  0
  -20.4360   19.1080  -22.6220 C   0  0  0  0  0  0  0  0  0  0  0  0
  -20.6030   20.2030  -23.4280 C   0  0  0  0  0  0  0  0  0  0  0  0
  -17.0260   22.3420  -17.5450 N   0  0  0  0  0  0  0  0  0  0  0  0
  -16.6480   22.9080  -16.2510 C   0  0  2  0  0  0  0  0  0  0  0  0
  -17.3470   24.2540  -16.0570 C   0  0  0  0  0  0  0  0  0  0  0  0
  -17.3210   24.7930  -14.9640 O   0  5  0  0  0  0  0  0  0  0  0  0
  -15.1230   23.0910  -16.1390 C   0  0  0  0  0  0  0  0  0  0  0  0
  -14.3800   22.1030  -16.8470 O   0  0  0  0  0  0  0  0  0  0  0  0
  -17.8651   24.7284  -16.8905 O   0  0  0  0  0  0  0  0  0  0  0  0
  -10.1385   13.9656  -26.9044 H   0  0  0  0  0  0  0  0  0  0  0  0
  -11.3831   13.4733  -25.9462 H   0  0  0  0  0  0  0  0  0  0  0  0
  -10.9600   15.0634  -25.9937 H   0  0  0  0  0  0  0  0  0  0  0  0
  -11.6119   15.3015  -28.2221 H   0  0  0  0  0  0  0  0  0  0  0  0
  -12.3185   12.3530  -28.0908 H   0  0  0  0  0  0  0  0  0  0  0  0
  -10.9502   13.0994  -28.9838 H   0  0  0  0  0  0  0  0  0  0  0  0
  -13.8301   13.8743  -29.5121 H   0  0  0  0  0  0  0  0  0  0  0  0
  -13.0610   12.4563  -30.3023 H   0  0  0  0  0  0  0  0  0  0  0  0
  -11.5710   15.0572  -30.3988 H   0  0  0  0  0  0  0  0  0  0  0  0
  -13.0604   14.9202  -31.3936 H   0  0  0  0  0  0  0  0  0  0  0  0
  -11.9885   13.4177  -32.7918 H   0  0  0  0  0  0  0  0  0  0  0  0
   -8.6751   12.7478  -30.5139 H   0  0  0  0  0  0  0  0  0  0  0  0
  -10.0049   13.7066  -29.8102 H   0  0  0  0  0  0  0  0  0  0  0  0
  -10.2940   12.2251  -33.6131 H   0  0  0  0  0  0  0  0  0  0  0  0
   -8.8364   11.9250  -32.6292 H   0  0  0  0  0  0  0  0  0  0  0  0
  -13.7063   13.1918  -26.0320 H   0  0  0  0  0  0  0  0  0  0  0  0
  -16.1499   14.5282  -26.8423 H   0  0  0  0  0  0  0  0  0  0  0  0
  -16.8959   13.8035  -24.3723 H   0  0  0  0  0  0  0  0  0  0  0  0
  -15.3685   12.8600  -24.4314 H   0  0  0  0  0  0  0  0  0  0  0  0
  -15.2095   18.3192  -24.7152 H   0  0  0  0  0  0  0  0  0  0  0  0
  -16.8346   19.9163  -25.2581 H   0  0  0  0  0  0  0  0  0  0  0  0
  -18.1922   18.8594  -24.7417 H   0  0  0  0  0  0  0  0  0  0  0  0
  -16.6074   18.8236  -27.3429 H   0  0  0  0  0  0  0  0  0  0  0  0
  -18.3817   18.6957  -27.0928 H   0  0  0  0  0  0  0  0  0  0  0  0
  -18.2533   16.4381  -26.4164 H   0  0  0  0  0  0  0  0  0  0  0  0
  -16.8598   16.4883  -27.5488 H   0  0  0  0  0  0  0  0  0  0  0  0
  -15.0910   19.0250  -22.6650 H   0  0  0  0  0  0  0  0  0  0  0  0
  -16.6825   17.6662  -20.5275 H   0  0  0  0  0  0  0  0  0  0  0  0
  -13.9924   19.1268  -20.4098 H   0  0  0  0  0  0  0  0  0  0  0  0
  -13.9003   18.4807  -18.0227 H   0  0  0  0  0  0  0  0  0  0  0  0
  -15.5800   17.8544  -18.1354 H   0  0  0  0  0  0  0  0  0  0  0  0
  -15.2566   19.6055  -18.3717 H   0  0  0  0  0  0  0  0  0  0  0  0
  -13.8893   16.8216  -21.3689 H   0  0  0  0  0  0  0  0  0  0  0  0
  -14.6583   16.1794  -19.8780 H   0  0  0  0  0  0  0  0  0  0  0  0
  -13.0343   16.9424  -19.7938 H   0  0  0  0  0  0  0  0  0  0  0  0
  -17.5268   19.0360  -18.8289 H   0  0  0  0  0  0  0  0  0  0  0  0
  -17.9919   21.8548  -19.7289 H   0  0  0  0  0  0  0  0  0  0  0  0
  -20.3582   21.5938  -18.8643 H   0  0  0  0  0  0  0  0  0  0  0  0
  -20.0542   19.8304  -18.7075 H   0  0  0  0  0  0  0  0  0  0  0  0
  -20.2523   22.6526  -21.1171 H   0  0  0  0  0  0  0  0  0  0  0  0
  -20.0295   18.4007  -20.6395 H   0  0  0  0  0  0  0  0  0  0  0  0
  -20.7026   22.3428  -23.5180 H   0  0  0  0  0  0  0  0  0  0  0  0
  -20.4977   18.1115  -23.0443 H   0  0  0  0  0  0  0  0  0  0  0  0
  -20.7747   20.0739  -24.4905 H   0  0  0  0  0  0  0  0  0  0  0  0
  -16.5885   22.6981  -18.3707 H   0  0  0  0  0  0  0  0  0  0  0  0
  -16.9759   22.2191  -15.4586 H   0  0  0  0  0  0  0  0  0  0  0  0
  -14.8433   23.0422  -15.0763 H   0  0  0  0  0  0  0  0  0  0  0  0
  -14.8602   24.0800  -16.5423 H   0  0  0  0  0  0  0  0  0  0  0  0
  -14.6050   22.1397  -17.7693 H   0  0  0  0  0  0  0  0  0  0  0  0
  1  2  1  0  0  0  0
  1 54  1  0  0  0  0
  1 55  1  0  0  0  0
  1 56  1  0  0  0  0
  2  3  1  0  0  0  0
  2  5  1  0  0  0  0
  2 57  1  6  0  0  0
  3  4  2  0  0  0  0
  3 12  1  0  0  0  0
  5  6  1  0  0  0  0
  5 58  1  0  0  0  0
  5 59  1  0  0  0  0
  6  7  1  0  0  0  0
  6 60  1  0  0  0  0
  6 61  1  0  0  0  0
  7  8  1  0  0  0  0
  7 62  1  0  0  0  0
  7 63  1  0  0  0  0
  8  9  1  0  0  0  0
  8 64  1  0  0  0  0
  9 10  1  0  0  0  0
  9 11  1  0  0  0  0
 10 65  1  0  0  0  0
 10 66  1  0  0  0  0
 11 67  1  0  0  0  0
 11 68  1  0  0  0  0
 12 13  1  0  0  0  0
 12 69  1  0  0  0  0
 13 14  1  0  0  0  0
 13 16  1  0  0  0  0
 13 70  1  6  0  0  0
 14 15  1  0  0  0  0
 14 71  1  0  0  0  0
 14 72  1  0  0  0  0
 15 18  1  0  0  0  0
 16 17  2  0  0  0  0
 16 22  1  0  0  0  0
 18 19  1  0  0  0  0
 18 20  1  0  0  0  0
 18 21  2  0  0  0  0
 22 23  1  0  0  0  0
 22 28  1  0  0  0  0
 23 24  1  0  0  0  0
 23 26  1  0  0  0  0
 23 73  1  6  0  0  0
 24 25  2  0  0  0  0
 24 29  1  0  0  0  0
 26 27  1  0  0  0  0
 26 74  1  0  0  0  0
 26 75  1  0  0  0  0
 27 28  1  0  0  0  0
 27 76  1  0  0  0  0
 27 77  1  0  0  0  0
 28 78  1  0  0  0  0
 28 79  1  0  0  0  0
 29 30  1  0  0  0  0
 29 80  1  0  0  0  0
 30 31  1  0  0  0  0
 30 33  1  0  0  0  0
 30 81  1  1  0  0  0
 31 32  2  0  0  0  0
 31 36  1  0  0  0  0
 33 34  1  0  0  0  0
 33 35  1  0  0  0  0
 33 82  1  0  0  0  0
 34 83  1  0  0  0  0
 34 84  1  0  0  0  0
 34 85  1  0  0  0  0
 35 86  1  0  0  0  0
 35 87  1  0  0  0  0
 35 88  1  0  0  0  0
 36 37  1  0  0  0  0
 36 89  1  0  0  0  0
 37 38  1  0  0  0  0
 37 40  1  0  0  0  0
 37 90  1  6  0  0  0
 38 39  2  0  0  0  0
 38 47  1  0  0  0  0
 40 41  1  0  0  0  0
 40 91  1  0  0  0  0
 40 92  1  0  0  0  0
 41 42  2  0  0  0  0
 41 43  1  0  0  0  0
 42 44  1  0  0  0  0
 42 93  1  0  0  0  0
 43 45  2  0  0  0  0
 43 94  1  0  0  0  0
 44 46  2  0  0  0  0
 44 95  1  0  0  0  0
 45 46  1  0  0  0  0
 45 96  1  0  0  0  0
 46 97  1  0  0  0  0
 47 48  1  0  0  0  0
 47 98  1  0  0  0  0
 48 49  1  0  0  0  0
 48 51  1  0  0  0  0
 48 99  1  1  0  0  0
 49 50  1  0  0  0  0
 49 53  2  0  0  0  0
 51 52  1  0  0  0  0
 51100  1  0  0  0  0
 51101  1  0  0  0  0
 52102  1  0  0  0  0
M  CHG  2   1   1  50  -1
M  END
