4igk_ligand
 OpenBabel08222323353D

 96 97  0  0  1  0  0  0  0  0999 V2000
    3.7090   -8.6010   12.6950 N   0  3  0  0  0  0  0  0  0  0  0  0
    4.0000   -8.7140   14.1750 C   0  0  2  0  0  0  0  0  0  0  0  0
    5.5210   -8.7690   14.5420 C   0  0  0  0  0  0  0  0  0  0  0  0
    6.1410   -7.7730   14.9340 O   0  0  0  0  0  0  0  0  0  0  0  0
    3.3100   -9.9520   14.6750 C   0  0  0  0  0  0  0  0  0  0  0  0
    6.0810   -9.9680   14.4220 N   0  0  0  0  0  0  0  0  0  0  0  0
    7.4870  -10.2460   14.5880 C   0  0  2  0  0  0  0  0  0  0  0  0
    7.9550  -10.9400   13.2840 C   0  0  0  0  0  0  0  0  0  0  0  0
    7.2900  -11.8220   12.8100 O   0  0  0  0  0  0  0  0  0  0  0  0
    7.6410  -11.2540   15.6820 C   0  0  0  0  0  0  0  0  0  0  0  0
    9.3600  -11.7470   15.9260 S   0  0  0  0  0  0  0  0  0  0  0  0
    9.0950  -10.5620   12.7310 N   0  0  0  0  0  0  0  0  0  0  0  0
    9.4650  -11.1870   11.4350 C   0  0  1  0  0  0  0  0  0  0  0  0
   10.5770  -10.3680   10.7180 C   0  0  0  0  0  0  0  0  0  0  0  0
   10.0170   -9.0990   10.4250 O   0  0  0  0  0  0  0  0  0  0  0  0
   10.1140  -12.5510   11.7300 C   0  0  0  0  0  0  0  0  0  0  0  0
   11.0820  -12.6550   12.5450 O   0  0  0  0  0  0  0  0  0  0  0  0
   11.0330   -7.8600   10.0510 P   0  0  0  0  0  0  0  0  0  0  0  0
   10.0760   -6.8530    9.4940 O   0  0  0  0  0  1  0  0  0  0  0  0
   11.7110   -7.4290   11.3030 O   0  0  0  0  0  1  0  0  0  0  0  0
   12.0450   -8.4100    9.0490 O   0  0  0  0  0  0  0  0  0  0  0  0
    9.7050  -13.5490   10.9970 N   0  0  0  0  0  0  0  0  0  0  0  0
   10.2530  -14.8960   11.2360 C   0  0  2  0  0  0  0  0  0  0  0  0
   11.6970  -14.9600   10.8260 C   0  0  0  0  0  0  0  0  0  0  0  0
   12.1260  -14.1770    9.9410 O   0  0  0  0  0  0  0  0  0  0  0  0
    9.3730  -15.7930   10.3620 C   0  0  0  0  0  0  0  0  0  0  0  0
    8.2550  -15.0240    9.8910 C   0  0  0  0  0  0  0  0  0  0  0  0
    8.5460  -13.5820   10.0970 C   0  0  0  0  0  0  0  0  0  0  0  0
   12.4570  -15.7800   11.5300 N   0  0  0  0  0  0  0  0  0  0  0  0
   13.8880  -16.0620   11.2550 C   0  0  2  0  0  0  0  0  0  0  0  0
   14.0420  -17.4880   10.6550 C   0  0  0  0  0  0  0  0  0  0  0  0
   13.2720  -18.4160   10.9690 O   0  0  0  0  0  0  0  0  0  0  0  0
   14.7460  -15.9160   12.5020 C   0  0  0  0  0  0  0  0  0  0  0  0
   14.6340  -14.5410   13.1850 C   0  0  0  0  0  0  0  0  0  0  0  0
   15.3600  -14.4800   14.4740 C   0  0  0  0  0  0  0  0  0  0  0  0
   15.4430  -15.4890   15.1940 O   0  0  0  0  0  0  0  0  0  0  0  0
   15.8980  -13.3310   14.8010 N   0  0  0  0  0  0  0  0  0  0  0  0
   15.0530  -17.6580    9.8140 N   0  0  0  0  0  0  0  0  0  0  0  0
   15.2860  -18.9240    9.0760 C   0  0  2  0  0  0  0  0  0  0  0  0
   16.6460  -19.4750    9.4910 C   0  0  0  0  0  0  0  0  0  0  0  0
   17.7510  -19.0380    9.0940 O   0  0  0  0  0  0  0  0  0  0  0  0
   15.1040  -18.7290    7.5640 C   0  0  0  0  0  0  0  0  0  0  0  0
   13.7550  -18.2760    7.1950 C   0  0  0  0  0  0  0  0  0  0  0  0
   13.4020  -16.8970    7.2110 C   0  0  0  0  0  0  0  0  0  0  0  0
   12.7730  -19.1690    6.8870 C   0  0  0  0  0  0  0  0  0  0  0  0
   12.1270  -16.4840    6.9590 C   0  0  0  0  0  0  0  0  0  0  0  0
   11.4700  -18.7670    6.6040 C   0  0  0  0  0  0  0  0  0  0  0  0
   11.1420  -17.4050    6.6080 C   0  0  0  0  0  0  0  0  0  0  0  0
   16.5710  -20.4110   10.4660 N   0  0  0  0  0  0  0  0  0  0  0  0
   17.7650  -21.0140   10.9310 C   0  0  0  0  0  0  0  0  0  0  0  0
   18.0350  -22.2070    9.9990 C   0  0  0  0  0  0  0  0  0  0  0  0
   19.0480  -22.8968   10.2916 O   0  5  0  0  0  0  0  0  0  0  0  0
   17.2966  -22.4753    9.0139 O   0  0  0  0  0  0  0  0  0  0  0  0
    2.7119   -8.5719   12.5499 H   0  0  0  0  0  0  0  0  0  0  0  0
    4.0952   -9.3986   12.2147 H   0  0  0  0  0  0  0  0  0  0  0  0
    4.1258   -7.7572   12.3341 H   0  0  0  0  0  0  0  0  0  0  0  0
    3.5685   -7.8348   14.6758 H   0  0  0  0  0  0  0  0  0  0  0  0
    3.4998  -10.0678   15.7523 H   0  0  0  0  0  0  0  0  0  0  0  0
    3.6978  -10.8302   14.1380 H   0  0  0  0  0  0  0  0  0  0  0  0
    2.2274   -9.8642   14.5008 H   0  0  0  0  0  0  0  0  0  0  0  0
    5.4817  -10.7370   14.1995 H   0  0  0  0  0  0  0  0  0  0  0  0
    8.0597   -9.3303   14.7964 H   0  0  0  0  0  0  0  0  0  0  0  0
    7.0506  -12.1461   15.4261 H   0  0  0  0  0  0  0  0  0  0  0  0
    7.2618  -10.8195   16.6187 H   0  0  0  0  0  0  0  0  0  0  0  0
    9.4115  -12.4245   16.6705 H   0  0  0  0  0  0  0  0  0  0  0  0
    9.6846   -9.8825   13.1677 H   0  0  0  0  0  0  0  0  0  0  0  0
    8.5772  -11.2913   10.7940 H   0  0  0  0  0  0  0  0  0  0  0  0
   10.8814  -10.8725    9.7892 H   0  0  0  0  0  0  0  0  0  0  0  0
   11.4504  -10.2548   11.3771 H   0  0  0  0  0  0  0  0  0  0  0  0
   10.1632  -15.1758   12.2960 H   0  0  0  0  0  0  0  0  0  0  0  0
    9.0117  -16.6468   10.9540 H   0  0  0  0  0  0  0  0  0  0  0  0
    9.9560  -16.1614    9.5050 H   0  0  0  0  0  0  0  0  0  0  0  0
    7.3514  -15.3028   10.4528 H   0  0  0  0  0  0  0  0  0  0  0  0
    8.0961  -15.2199    8.8203 H   0  0  0  0  0  0  0  0  0  0  0  0
    8.7867  -13.0964    9.1398 H   0  0  0  0  0  0  0  0  0  0  0  0
    7.6847  -13.0766   10.5582 H   0  0  0  0  0  0  0  0  0  0  0  0
   12.0358  -16.2464   12.3078 H   0  0  0  0  0  0  0  0  0  0  0  0
   14.2427  -15.3329   10.5117 H   0  0  0  0  0  0  0  0  0  0  0  0
   15.7968  -16.0764   12.2190 H   0  0  0  0  0  0  0  0  0  0  0  0
   14.4391  -16.6865   13.2246 H   0  0  0  0  0  0  0  0  0  0  0  0
   13.5712  -14.3258   13.3697 H   0  0  0  0  0  0  0  0  0  0  0  0
   15.0507  -13.7785   12.5105 H   0  0  0  0  0  0  0  0  0  0  0  0
   16.3985  -13.2402   15.6620 H   0  0  0  0  0  0  0  0  0  0  0  0
   15.8081  -12.5448   14.1896 H   0  0  0  0  0  0  0  0  0  0  0  0
   15.6873  -16.8984    9.6706 H   0  0  0  0  0  0  0  0  0  0  0  0
   14.5253  -19.6511    9.3964 H   0  0  0  0  0  0  0  0  0  0  0  0
   15.2998  -19.6880    7.0621 H   0  0  0  0  0  0  0  0  0  0  0  0
   15.8309  -17.9791    7.2185 H   0  0  0  0  0  0  0  0  0  0  0  0
   14.1645  -16.1579    7.4286 H   0  0  0  0  0  0  0  0  0  0  0  0
   13.0136  -20.2257    6.8614 H   0  0  0  0  0  0  0  0  0  0  0  0
   11.8780  -15.4315    7.0323 H   0  0  0  0  0  0  0  0  0  0  0  0
   10.7103  -19.5073    6.3808 H   0  0  0  0  0  0  0  0  0  0  0  0
   10.1439  -17.0749    6.3438 H   0  0  0  0  0  0  0  0  0  0  0  0
   15.6863  -20.6726   10.8519 H   0  0  0  0  0  0  0  0  0  0  0  0
   17.6385  -21.3608   11.9672 H   0  0  0  0  0  0  0  0  0  0  0  0
   18.5978  -20.2970   10.8834 H   0  0  0  0  0  0  0  0  0  0  0  0
  1  2  1  0  0  0  0
  1 54  1  0  0  0  0
  1 55  1  0  0  0  0
  1 56  1  0  0  0  0
  2  3  1  0  0  0  0
  2  5  1  0  0  0  0
  2 57  1  1  0  0  0
  3  4  2  0  0  0  0
  3  6  1  0  0  0  0
  5 58  1  0  0  0  0
  5 59  1  0  0  0  0
  5 60  1  0  0  0  0
  6  7  1  0  0  0  0
  6 61  1  0  0  0  0
  7  8  1  0  0  0  0
  7 10  1  0  0  0  0
  7 62  1  1  0  0  0
  8  9  2  0  0  0  0
  8 12  1  0  0  0  0
 10 11  1  0  0  0  0
 10 63  1  0  0  0  0
 10 64  1  0  0  0  0
 11 65  1  0  0  0  0
 12 13  1  0  0  0  0
 12 66  1  0  0  0  0
 13 14  1  0  0  0  0
 13 16  1  0  0  0  0
 13 67  1  6  0  0  0
 14 15  1  0  0  0  0
 14 68  1  0  0  0  0
 14 69  1  0  0  0  0
 15 18  1  0  0  0  0
 16 17  2  0  0  0  0
 16 22  1  0  0  0  0
 18 19  1  0  0  0  0
 18 20  1  0  0  0  0
 18 21  2  0  0  0  0
 22 23  1  0  0  0  0
 22 28  1  0  0  0  0
 23 24  1  0  0  0  0
 23 26  1  0  0  0  0
 23 70  1  1  0  0  0
 24 25  2  0  0  0  0
 24 29  1  0  0  0  0
 26 27  1  0  0  0  0
 26 71  1  0  0  0  0
 26 72  1  0  0  0  0
 27 28  1  0  0  0  0
 27 73  1  0  0  0  0
 27 74  1  0  0  0  0
 28 75  1  0  0  0  0
 28 76  1  0  0  0  0
 29 30  1  0  0  0  0
 29 77  1  0  0  0  0
 30 31  1  0  0  0  0
 30 33  1  0  0  0  0
 30 78  1  6  0  0  0
 31 32  2  0  0  0  0
 31 38  1  0  0  0  0
 33 34  1  0  0  0  0
 33 79  1  0  0  0  0
 33 80  1  0  0  0  0
 34 35  1  0  0  0  0
 34 81  1  0  0  0  0
 34 82  1  0  0  0  0
 35 36  2  0  0  0  0
 35 37  1  0  0  0  0
 37 83  1  0  0  0  0
 37 84  1  0  0  0  0
 38 39  1  0  0  0  0
 38 85  1  0  0  0  0
 39 40  1  0  0  0  0
 39 42  1  0  0  0  0
 39 86  1  1  0  0  0
 40 41  2  0  0  0  0
 40 49  1  0  0  0  0
 42 43  1  0  0  0  0
 42 87  1  0  0  0  0
 42 88  1  0  0  0  0
 43 44  2  0  0  0  0
 43 45  1  0  0  0  0
 44 46  1  0  0  0  0
 44 89  1  0  0  0  0
 45 47  2  0  0  0  0
 45 90  1  0  0  0  0
 46 48  2  0  0  0  0
 46 91  1  0  0  0  0
 47 48  1  0  0  0  0
 47 92  1  0  0  0  0
 48 93  1  0  0  0  0
 49 50  1  0  0  0  0
 49 94  1  0  0  0  0
 50 51  1  0  0  0  0
 50 95  1  0  0  0  0
 50 96  1  0  0  0  0
 51 52  1  0  0  0  0
 51 53  2  0  0  0  0
M  CHG  2   1   1  52  -1
M  END
