4igr_ligand
 OpenBabel08222323353D

 32 31  0  0  1  0  0  0  0  0999 V2000
   -6.5720   30.4960  -15.9980 O   0  0  0  0  0  0  0  0  0  0  0  0
   -5.6530   28.2060  -17.6080 C   0  0  0  0  0  0  0  0  0  0  0  0
   -4.2030   28.0060  -15.4090 C   0  0  1  0  0  0  0  0  0  0  0  0
   -2.3900   31.8320  -12.8640 O   0  5  0  0  0  0  0  0  0  0  0  0
   -1.0700   30.3160  -13.9220 O   0  0  0  0  0  0  0  0  0  0  0  0
   -3.3770   26.8790  -14.7850 C   0  0  0  0  0  0  0  0  0  0  0  0
   -6.8890   28.1530  -16.7120 C   0  0  0  0  0  0  0  0  0  0  0  0
   -3.4370   29.7820  -13.6590 C   0  0  2  0  0  0  0  0  0  0  0  0
   -3.5970   29.3980  -15.1390 C   0  0  0  0  0  0  0  0  0  0  0  0
   -4.3660   27.6940  -16.9230 C   0  0  0  0  0  0  0  0  0  0  0  0
   -4.7450   30.3560  -13.1440 N   0  3  0  0  0  0  0  0  0  0  0  0
   -2.1770   30.7200  -13.4660 C   0  0  0  0  0  0  0  0  0  0  0  0
   -2.1250   27.0250  -14.7320 O   0  5  0  0  0  0  0  0  0  0  0  0
   -4.0530   25.8900  -14.3780 O   0  0  0  0  0  0  0  0  0  0  0  0
   -7.4540   27.0720  -16.5260 O   0  0  0  0  0  0  0  0  0  0  0  0
   -7.3450   29.3210  -16.1220 N   0  0  0  0  0  0  0  0  0  0  0  0
   -8.6680   29.5330  -15.5550 C   0  0  0  0  0  0  0  0  0  0  0  0
   -6.3185   30.7996  -16.8617 H   0  0  0  0  0  0  0  0  0  0  0  0
   -5.4912   29.2498  -17.9149 H   0  0  0  0  0  0  0  0  0  0  0  0
   -5.8423   27.5874  -18.4976 H   0  0  0  0  0  0  0  0  0  0  0  0
   -5.2024   27.9934  -14.9497 H   0  0  0  0  0  0  0  0  0  0  0  0
   -3.2409   28.8621  -13.0887 H   0  0  0  0  0  0  0  0  0  0  0  0
   -4.2476   30.1473  -15.6137 H   0  0  0  0  0  0  0  0  0  0  0  0
   -2.6012   29.4289  -15.6053 H   0  0  0  0  0  0  0  0  0  0  0  0
   -3.5094   28.1413  -17.4485 H   0  0  0  0  0  0  0  0  0  0  0  0
   -4.3388   26.6008  -17.0417 H   0  0  0  0  0  0  0  0  0  0  0  0
   -4.6421   30.6085  -12.1736 H   0  0  0  0  0  0  0  0  0  0  0  0
   -5.4741   29.6661  -13.2362 H   0  0  0  0  0  0  0  0  0  0  0  0
   -4.9870   31.1745  -13.6802 H   0  0  0  0  0  0  0  0  0  0  0  0
   -9.2621   28.6128  -15.6563 H   0  0  0  0  0  0  0  0  0  0  0  0
   -9.1689   30.3535  -16.0896 H   0  0  0  0  0  0  0  0  0  0  0  0
   -8.5733   29.7929  -14.4904 H   0  0  0  0  0  0  0  0  0  0  0  0
  1 18  1  0  0  0  0
  2  7  1  0  0  0  0
  2 19  1  0  0  0  0
  2 20  1  0  0  0  0
  3  6  1  0  0  0  0
  3 10  1  0  0  0  0
  3 21  1  1  0  0  0
  6 13  1  0  0  0  0
  6 14  2  0  0  0  0
  7 15  2  0  0  0  0
  7 16  1  0  0  0  0
  8  9  1  0  0  0  0
  8 11  1  0  0  0  0
  8 12  1  0  0  0  0
  8 22  1  1  0  0  0
  9  3  1  0  0  0  0
  9 23  1  0  0  0  0
  9 24  1  0  0  0  0
 10  2  1  0  0  0  0
 10 25  1  0  0  0  0
 10 26  1  0  0  0  0
 11 27  1  0  0  0  0
 11 28  1  0  0  0  0
 11 29  1  0  0  0  0
 12  4  1  0  0  0  0
 12  5  2  0  0  0  0
 16  1  1  0  0  0  0
 16 17  1  0  0  0  0
 17 30  1  0  0  0  0
 17 31  1  0  0  0  0
 17 32  1  0  0  0  0
M  CHG  3   4  -1  11   1  13  -1
M  END
