4iho_ligand
 OpenBabel08222323353D

149151  0  0  1  0  0  0  0  0999 V2000
  -14.0100  -54.9820  -14.6780 N   0  3  0  0  0  0  0  0  0  0  0  0
  -14.4780  -53.6520  -15.1270 C   0  0  2  0  0  0  0  0  0  0  0  0
  -15.8990  -53.3750  -14.6340 C   0  0  0  0  0  0  0  0  0  0  0  0
  -16.5700  -54.2730  -14.1450 O   0  0  0  0  0  0  0  0  0  0  0  0
  -14.3280  -53.5450  -16.6450 C   0  0  0  0  0  0  0  0  0  0  0  0
  -12.8640  -53.4250  -17.0640 C   0  0  0  0  0  0  0  0  0  0  0  0
  -12.6580  -53.2170  -18.5630 C   0  0  0  0  0  0  0  0  0  0  0  0
  -13.6500  -53.0830  -19.3040 O   0  5  0  0  0  0  0  0  0  0  0  0
  -11.4860  -53.1670  -19.0170 O   0  0  0  0  0  0  0  0  0  0  0  0
  -16.3500  -52.1250  -14.7110 N   0  0  0  0  0  0  0  0  0  0  0  0
  -17.6580  -51.7590  -14.1320 C   0  0  0  0  0  0  0  0  0  0  0  0
  -18.7780  -52.0740  -15.0990 C   0  0  0  0  0  0  0  0  0  0  0  0
  -18.5150  -52.2670  -16.2880 O   0  0  0  0  0  0  0  0  0  0  0  0
  -20.0310  -52.1040  -14.6100 N   0  0  0  0  0  0  0  0  0  0  0  0
  -21.1860  -52.2480  -15.4880 C   0  0  2  0  0  0  0  0  0  0  0  0
  -21.5070  -50.9210  -16.1410 C   0  0  0  0  0  0  0  0  0  0  0  0
  -21.3680  -49.8550  -15.5230 O   0  0  0  0  0  0  0  0  0  0  0  0
  -22.3110  -52.5670  -14.5180 C   0  0  0  0  0  0  0  0  0  0  0  0
  -21.9380  -51.8270  -13.2750 C   0  0  0  0  0  0  0  0  0  0  0  0
  -20.4290  -51.8120  -13.2200 C   0  0  0  0  0  0  0  0  0  0  0  0
  -21.9540  -50.9550  -17.3790 N   0  0  0  0  0  0  0  0  0  0  0  0
  -22.3850  -49.7190  -17.9730 C   0  0  2  0  0  0  0  0  0  0  0  0
  -23.8880  -49.7800  -17.9540 C   0  0  0  0  0  0  0  0  0  0  0  0
  -24.4680  -50.7860  -18.3720 O   0  0  0  0  0  0  0  0  0  0  0  0
  -21.8380  -49.5990  -19.3850 C   0  0  0  0  0  0  0  0  0  0  0  0
  -21.2780  -48.2300  -19.7030 C   0  0  0  0  0  0  0  0  0  0  0  0
  -20.7740  -48.1770  -21.1400 C   0  0  0  0  0  0  0  0  0  0  0  0
  -19.4320  -48.7400  -21.3360 N   0  0  0  0  0  0  0  0  0  0  0  0
  -19.1720  -49.9750  -21.7670 C   0  0  0  0  0  3  0  0  0  0  0  0
  -20.1640  -50.8120  -22.0560 N   0  0  0  0  0  0  0  0  0  0  0  0
  -17.9100  -50.3800  -21.9040 N   0  0  0  0  0  0  0  0  0  0  0  0
  -24.5220  -48.7280  -17.4430 N   0  0  0  0  0  0  0  0  0  0  0  0
  -25.9850  -48.6930  -17.3870 C   0  0  2  0  0  0  0  0  0  0  0  0
  -26.6160  -48.4010  -18.7410 C   0  0  0  0  0  0  0  0  0  0  0  0
  -25.9400  -47.9020  -19.6420 O   0  0  0  0  0  0  0  0  0  0  0  0
  -26.4780  -47.7020  -16.3280 C   0  0  0  0  0  0  0  0  0  0  0  0
  -26.3750  -48.2570  -14.9190 C   0  0  0  0  0  0  0  0  0  0  0  0
  -26.2200  -49.4710  -14.7220 O   0  0  0  0  0  0  0  0  0  0  0  0
  -26.4790  -47.3790  -13.9300 N   0  0  0  0  0  0  0  0  0  0  0  0
  -27.9050  -48.7310  -18.8700 N   0  0  0  0  0  0  0  0  0  0  0  0
  -28.6610  -48.5610  -20.1210 C   0  0  2  0  0  0  0  0  0  0  0  0
  -29.7320  -47.4340  -20.0150 C   0  0  0  0  0  0  0  0  0  0  0  0
  -29.3740  -46.2830  -19.8270 O   0  0  0  0  0  0  0  0  0  0  0  0
  -29.2450  -49.9080  -20.5800 C   0  0  0  0  0  0  0  0  0  0  0  0
  -29.8230  -49.9020  -21.9880 C   0  0  0  0  0  0  0  0  0  0  0  0
  -31.0650  -50.7610  -22.1120 C   0  0  0  0  0  0  0  0  0  0  0  0
  -30.9740  -51.9440  -22.4150 O   0  0  0  0  0  0  0  0  0  0  0  0
  -32.2320  -50.1680  -21.8810 N   0  0  0  0  0  0  0  0  0  0  0  0
  -31.0180  -47.7660  -20.1290 N   0  0  0  0  0  0  0  0  0  0  0  0
  -32.0780  -46.7650  -20.0730 C   0  0  2  0  0  0  0  0  0  0  0  0
  -32.2240  -46.2250  -18.6550 C   0  0  0  0  0  0  0  0  0  0  0  0
  -32.2080  -46.9980  -17.6950 O   0  0  0  0  0  0  0  0  0  0  0  0
  -33.4260  -47.3380  -20.5610 C   0  0  0  0  0  0  0  0  0  0  0  0
  -34.4560  -46.2390  -20.9010 C   0  0  0  0  0  0  0  0  0  0  0  0
  -34.0460  -45.0730  -21.0900 O   0  5  0  0  0  0  0  0  0  0  0  0
  -35.6730  -46.5320  -20.9950 O   0  0  0  0  0  0  0  0  0  0  0  0
  -32.5480  -44.9670  -18.5150 N   0  0  0  0  0  0  0  0  0  0  0  0
  -32.5710  -44.3010  -17.2480 C   0  0  2  0  0  0  0  0  0  0  0  0
  -33.6910  -44.8440  -16.3790 C   0  0  0  0  0  0  0  0  0  0  0  0
  -34.5040  -45.5870  -16.8400 O   0  0  0  0  0  0  0  0  0  0  0  0
  -32.7480  -42.7880  -17.4880 C   0  0  0  0  0  0  0  0  0  0  0  0
  -31.5850  -42.0920  -18.1460 C   0  0  0  0  0  0  0  0  0  0  0  0
  -30.3920  -41.8860  -17.6090 C   0  0  0  0  0  0  0  0  0  0  0  0
  -31.5310  -41.5080  -19.4510 C   0  0  0  0  0  0  0  0  0  0  0  0
  -29.5880  -41.2370  -18.4630 N   0  0  0  0  0  0  0  0  0  0  0  0
  -30.2660  -41.0000  -19.6150 C   0  0  0  0  0  0  0  0  0  0  0  0
  -32.4410  -41.3700  -20.5010 C   0  0  0  0  0  0  0  0  0  0  0  0
  -29.8760  -40.3600  -20.7640 C   0  0  0  0  0  0  0  0  0  0  0  0
  -32.0430  -40.7650  -21.6370 C   0  0  0  0  0  0  0  0  0  0  0  0
  -30.7820  -40.2600  -21.7620 C   0  0  0  0  0  0  0  0  0  0  0  0
  -33.6670  -44.5630  -15.0870 N   0  0  0  0  0  0  0  0  0  0  0  0
  -34.8820  -44.7050  -14.2780 C   0  0  2  0  0  0  0  0  0  0  0  0
  -36.0100  -43.8050  -14.8080 C   0  0  0  0  0  0  0  0  0  0  0  0
  -35.8050  -42.6360  -15.2590 O   0  5  0  0  0  0  0  0  0  0  0  0
  -34.6070  -44.3190  -12.8270 C   0  0  0  0  0  0  0  0  0  0  0  0
  -33.4660  -44.9660  -12.0440 C   0  0  0  0  0  0  0  0  0  0  0  0
  -33.4270  -44.2760  -10.6950 C   0  0  0  0  0  0  0  0  0  0  0  0
  -33.6400  -46.4750  -11.8570 C   0  0  0  0  0  0  0  0  0  0  0  0
  -37.1710  -44.2440  -14.7700 O   0  0  0  0  0  0  0  0  0  0  0  0
  -13.0733  -55.1400  -15.0151 H   0  0  0  0  0  0  0  0  0  0  0  0
  -14.6228  -55.6945  -15.0424 H   0  0  0  0  0  0  0  0  0  0  0  0
  -14.0150  -55.0175  -13.6706 H   0  0  0  0  0  0  0  0  0  0  0  0
  -13.8235  -52.8917  -14.6758 H   0  0  0  0  0  0  0  0  0  0  0  0
  -14.8723  -52.6554  -16.9946 H   0  0  0  0  0  0  0  0  0  0  0  0
  -14.7585  -54.4444  -17.1095 H   0  0  0  0  0  0  0  0  0  0  0  0
  -12.3437  -54.3482  -16.7690 H   0  0  0  0  0  0  0  0  0  0  0  0
  -12.4220  -52.5692  -16.5329 H   0  0  0  0  0  0  0  0  0  0  0  0
  -15.7972  -51.4266  -15.1657 H   0  0  0  0  0  0  0  0  0  0  0  0
  -17.6656  -50.6818  -13.9093 H   0  0  0  0  0  0  0  0  0  0  0  0
  -17.8131  -52.3267  -13.2027 H   0  0  0  0  0  0  0  0  0  0  0  0
  -21.0392  -53.0367  -16.2405 H   0  0  0  0  0  0  0  0  0  0  0  0
  -22.3673  -53.6488  -14.3268 H   0  0  0  0  0  0  0  0  0  0  0  0
  -23.2763  -52.2129  -14.9089 H   0  0  0  0  0  0  0  0  0  0  0  0
  -22.3451  -52.3397  -12.3911 H   0  0  0  0  0  0  0  0  0  0  0  0
  -22.3268  -50.7988  -13.3140 H   0  0  0  0  0  0  0  0  0  0  0  0
  -20.0569  -50.8265  -12.9032 H   0  0  0  0  0  0  0  0  0  0  0  0
  -20.0529  -52.5842  -12.5328 H   0  0  0  0  0  0  0  0  0  0  0  0
  -21.9925  -51.8137  -17.8900 H   0  0  0  0  0  0  0  0  0  0  0  0
  -22.0342  -48.8632  -17.3776 H   0  0  0  0  0  0  0  0  0  0  0  0
  -22.6519  -49.8148  -20.0928 H   0  0  0  0  0  0  0  0  0  0  0  0
  -21.0357  -50.3409  -19.5114 H   0  0  0  0  0  0  0  0  0  0  0  0
  -20.4441  -48.0128  -19.0193 H   0  0  0  0  0  0  0  0  0  0  0  0
  -22.0679  -47.4763  -19.5690 H   0  0  0  0  0  0  0  0  0  0  0  0
  -20.7548  -47.1244  -21.4587 H   0  0  0  0  0  0  0  0  0  0  0  0
  -21.4778  -48.7387  -21.7718 H   0  0  0  0  0  0  0  0  0  0  0  0
  -18.6275  -48.1328  -21.1237 H   0  0  0  0  0  0  0  0  0  0  0  0
  -19.9542  -51.7641  -22.3883 H   0  0  0  0  0  0  0  0  0  0  0  0
  -21.1422  -50.5083  -21.9476 H   0  0  0  0  0  0  0  0  0  0  0  0
  -17.1360  -49.7376  -21.6822 H   0  0  0  0  0  0  0  0  0  0  0  0
  -17.7084  -51.3354  -22.2317 H   0  0  0  0  0  0  0  0  0  0  0  0
  -23.9945  -47.9536  -17.0937 H   0  0  0  0  0  0  0  0  0  0  0  0
  -26.3208  -49.6950  -17.0818 H   0  0  0  0  0  0  0  0  0  0  0  0
  -27.5306  -47.4591  -16.5352 H   0  0  0  0  0  0  0  0  0  0  0  0
  -25.8711  -46.7868  -16.3917 H   0  0  0  0  0  0  0  0  0  0  0  0
  -26.4189  -47.6862  -12.9803 H   0  0  0  0  0  0  0  0  0  0  0  0
  -26.6175  -46.4099  -14.1342 H   0  0  0  0  0  0  0  0  0  0  0  0
  -28.3793  -49.1125  -18.0766 H   0  0  0  0  0  0  0  0  0  0  0  0
  -27.9444  -48.2421  -20.8923 H   0  0  0  0  0  0  0  0  0  0  0  0
  -30.0465  -50.1902  -19.8815 H   0  0  0  0  0  0  0  0  0  0  0  0
  -28.4434  -50.6603  -20.5416 H   0  0  0  0  0  0  0  0  0  0  0  0
  -29.0605  -50.2828  -22.6834 H   0  0  0  0  0  0  0  0  0  0  0  0
  -30.0818  -48.8676  -22.2581 H   0  0  0  0  0  0  0  0  0  0  0  0
  -33.0812  -50.6916  -21.9500 H   0  0  0  0  0  0  0  0  0  0  0  0
  -32.2607  -49.1983  -21.6383 H   0  0  0  0  0  0  0  0  0  0  0  0
  -31.2628  -48.7272  -20.2564 H   0  0  0  0  0  0  0  0  0  0  0  0
  -31.7983  -45.9326  -20.7354 H   0  0  0  0  0  0  0  0  0  0  0  0
  -33.8432  -47.9776  -19.7693 H   0  0  0  0  0  0  0  0  0  0  0  0
  -33.2455  -47.9414  -21.4628 H   0  0  0  0  0  0  0  0  0  0  0  0
  -32.7916  -44.4444  -19.3320 H   0  0  0  0  0  0  0  0  0  0  0  0
  -31.6133  -44.4726  -16.7348 H   0  0  0  0  0  0  0  0  0  0  0  0
  -32.9214  -42.3088  -16.5131 H   0  0  0  0  0  0  0  0  0  0  0  0
  -33.6318  -42.6481  -18.1277 H   0  0  0  0  0  0  0  0  0  0  0  0
  -30.1029  -42.2016  -16.6076 H   0  0  0  0  0  0  0  0  0  0  0  0
  -28.6131  -40.9625  -18.2754 H   0  0  0  0  0  0  0  0  0  0  0  0
  -33.4536  -41.7444  -20.4034 H   0  0  0  0  0  0  0  0  0  0  0  0
  -28.8780  -39.9496  -20.8677 H   0  0  0  0  0  0  0  0  0  0  0  0
  -32.7365  -40.6780  -22.4656 H   0  0  0  0  0  0  0  0  0  0  0  0
  -30.4995  -39.7662  -22.6847 H   0  0  0  0  0  0  0  0  0  0  0  0
  -32.8176  -44.2527  -14.6602 H   0  0  0  0  0  0  0  0  0  0  0  0
  -35.2100  -45.7542  -14.3177 H   0  0  0  0  0  0  0  0  0  0  0  0
  -35.5298  -44.5300  -12.2668 H   0  0  0  0  0  0  0  0  0  0  0  0
  -34.4148  -43.2359  -12.8224 H   0  0  0  0  0  0  0  0  0  0  0  0
  -32.5202  -44.7906  -12.5775 H   0  0  0  0  0  0  0  0  0  0  0  0
  -32.6179  -44.7061  -10.0865 H   0  0  0  0  0  0  0  0  0  0  0  0
  -34.3888  -44.4207  -10.1812 H   0  0  0  0  0  0  0  0  0  0  0  0
  -33.2459  -43.2005  -10.8383 H   0  0  0  0  0  0  0  0  0  0  0  0
  -33.6670  -46.9657  -12.8411 H   0  0  0  0  0  0  0  0  0  0  0  0
  -34.5813  -46.6722  -11.3230 H   0  0  0  0  0  0  0  0  0  0  0  0
  -32.7968  -46.8717  -11.2726 H   0  0  0  0  0  0  0  0  0  0  0  0
  1  2  1  0  0  0  0
  1 80  1  0  0  0  0
  1 81  1  0  0  0  0
  1 82  1  0  0  0  0
  2  3  1  0  0  0  0
  2  5  1  0  0  0  0
  2 83  1  1  0  0  0
  3  4  2  0  0  0  0
  3 10  1  0  0  0  0
  5  6  1  0  0  0  0
  5 84  1  0  0  0  0
  5 85  1  0  0  0  0
  6  7  1  0  0  0  0
  6 86  1  0  0  0  0
  6 87  1  0  0  0  0
  7  8  1  0  0  0  0
  7  9  2  0  0  0  0
 10 11  1  0  0  0  0
 10 88  1  0  0  0  0
 11 12  1  0  0  0  0
 11 89  1  0  0  0  0
 11 90  1  0  0  0  0
 12 13  2  0  0  0  0
 12 14  1  0  0  0  0
 14 15  1  0  0  0  0
 14 20  1  0  0  0  0
 15 16  1  0  0  0  0
 15 18  1  0  0  0  0
 15 91  1  6  0  0  0
 16 17  2  0  0  0  0
 16 21  1  0  0  0  0
 18 19  1  0  0  0  0
 18 92  1  0  0  0  0
 18 93  1  0  0  0  0
 19 20  1  0  0  0  0
 19 94  1  0  0  0  0
 19 95  1  0  0  0  0
 20 96  1  0  0  0  0
 20 97  1  0  0  0  0
 21 22  1  0  0  0  0
 21 98  1  0  0  0  0
 22 23  1  0  0  0  0
 22 25  1  0  0  0  0
 22 99  1  1  0  0  0
 23 24  2  0  0  0  0
 23 32  1  0  0  0  0
 25 26  1  0  0  0  0
 25100  1  0  0  0  0
 25101  1  0  0  0  0
 26 27  1  0  0  0  0
 26102  1  0  0  0  0
 26103  1  0  0  0  0
 27 28  1  0  0  0  0
 27104  1  0  0  0  0
 27105  1  0  0  0  0
 28 29  1  0  0  0  0
 28106  1  0  0  0  0
 29 30  1  0  0  0  0
 29 31  1  0  0  0  0
 30107  1  0  0  0  0
 30108  1  0  0  0  0
 31109  1  0  0  0  0
 31110  1  0  0  0  0
 32 33  1  0  0  0  0
 32111  1  0  0  0  0
 33 34  1  0  0  0  0
 33 36  1  0  0  0  0
 33112  1  1  0  0  0
 34 35  2  0  0  0  0
 34 40  1  0  0  0  0
 36 37  1  0  0  0  0
 36113  1  0  0  0  0
 36114  1  0  0  0  0
 37 38  2  0  0  0  0
 37 39  1  0  0  0  0
 39115  1  0  0  0  0
 39116  1  0  0  0  0
 40 41  1  0  0  0  0
 40117  1  0  0  0  0
 41 42  1  0  0  0  0
 41 44  1  0  0  0  0
 41118  1  6  0  0  0
 42 43  2  0  0  0  0
 42 49  1  0  0  0  0
 44 45  1  0  0  0  0
 44119  1  0  0  0  0
 44120  1  0  0  0  0
 45 46  1  0  0  0  0
 45121  1  0  0  0  0
 45122  1  0  0  0  0
 46 47  2  0  0  0  0
 46 48  1  0  0  0  0
 48123  1  0  0  0  0
 48124  1  0  0  0  0
 49 50  1  0  0  0  0
 49125  1  0  0  0  0
 50 51  1  0  0  0  0
 50 53  1  0  0  0  0
 50126  1  6  0  0  0
 51 52  2  0  0  0  0
 51 57  1  0  0  0  0
 53 54  1  0  0  0  0
 53127  1  0  0  0  0
 53128  1  0  0  0  0
 54 55  1  0  0  0  0
 54 56  2  0  0  0  0
 57 58  1  0  0  0  0
 57129  1  0  0  0  0
 58 59  1  0  0  0  0
 58 61  1  0  0  0  0
 58130  1  1  0  0  0
 59 60  2  0  0  0  0
 59 71  1  0  0  0  0
 61 62  1  0  0  0  0
 61131  1  0  0  0  0
 61132  1  0  0  0  0
 62 63  2  0  0  0  0
 62 64  1  0  0  0  0
 63 65  1  0  0  0  0
 63133  1  0  0  0  0
 64 66  2  0  0  0  0
 64 67  1  0  0  0  0
 65 66  1  0  0  0  0
 65134  1  0  0  0  0
 66 68  1  0  0  0  0
 67 69  2  0  0  0  0
 67135  1  0  0  0  0
 68 70  2  0  0  0  0
 68136  1  0  0  0  0
 69 70  1  0  0  0  0
 69137  1  0  0  0  0
 70138  1  0  0  0  0
 71 72  1  0  0  0  0
 71139  1  0  0  0  0
 72 73  1  0  0  0  0
 72 75  1  0  0  0  0
 72140  1  6  0  0  0
 73 74  1  0  0  0  0
 73 79  2  0  0  0  0
 75 76  1  0  0  0  0
 75141  1  0  0  0  0
 75142  1  0  0  0  0
 76 77  1  0  0  0  0
 76 78  1  0  0  0  0
 76143  1  0  0  0  0
 77144  1  0  0  0  0
 77145  1  0  0  0  0
 77146  1  0  0  0  0
 78147  1  0  0  0  0
 78148  1  0  0  0  0
 78149  1  0  0  0  0
M  CHG  4   1   1   8  -1  55  -1  74  -1
M  END
