4ii9_ligand
 OpenBabel08222323353D

234244  0  0  1  0  0  0  0  0999 V2000
   14.0640    2.1350   20.5800 N   0  0  0  0  0  0  0  0  0  0  0  0
   13.3560    1.7950   21.8400 C   0  0  2  0  0  0  0  0  0  0  0  0
   13.0750    2.9800   22.7630 C   0  0  0  0  0  0  0  0  0  0  0  0
   12.0760    3.0010   23.5410 O   0  0  0  0  0  0  0  0  0  0  0  0
   14.2430    0.7650   22.5580 C   0  0  0  0  0  0  0  0  0  0  0  0
   13.9180    4.0340   22.6740 N   0  0  0  0  0  0  0  0  0  0  0  0
   13.7120    5.2240   23.4720 C   0  0  1  0  0  0  0  0  0  0  0  0
   14.7430    5.3210   24.6260 C   0  0  0  0  0  0  0  0  0  0  0  0
   15.9130    4.8180   24.4880 O   0  5  0  0  0  0  0  0  0  0  0  0
   13.8640    6.4880   22.6020 C   0  0  0  0  0  0  0  0  0  0  0  0
   12.8590    6.6040   21.4060 C   0  0  0  0  0  0  0  0  0  0  0  0
   11.4740    6.9710   21.8900 C   0  0  0  0  0  0  0  0  0  0  0  0
   11.1160    6.9460   23.0640 O   0  0  0  0  0  0  0  0  0  0  0  0
   14.3980    5.9470   25.6690 O   0  0  0  0  0  0  0  0  0  0  0  0
   10.5750    6.9650   20.8020 N   0  0  0  0  0  0  0  0  0  0  0  0
    9.1890    7.4930   21.0670 C   0  0  2  0  0  0  0  0  0  0  0  0
    8.3250    6.8570   19.9730 C   0  0  0  0  0  0  0  0  0  0  0  0
    7.5170    7.5550   19.3280 O   0  0  0  0  0  0  0  0  0  0  0  0
    9.2800    9.0970   20.9720 C   0  0  0  0  0  0  0  0  0  0  0  0
    8.3370    9.6600   22.4070 S   0  0  0  0  0  0  0  0  0  0  0  0
    8.4800    5.5490   19.7050 N   0  0  0  0  0  0  0  0  0  0  0  0
    7.7540    5.0050   18.5430 C   0  0  2  0  0  0  0  0  0  0  0  0
    7.9580    3.4870   18.4600 C   0  0  0  0  0  0  0  0  0  0  0  0
    8.0980    5.5840   17.2030 C   0  0  0  0  0  0  0  0  0  0  0  0
    9.3010    5.7800   16.8980 O   0  0  0  0  0  0  0  0  0  0  0  0
    7.0570    5.8860   16.3880 N   0  0  0  0  0  0  0  0  0  0  0  0
    7.3150    6.5980   15.1280 C   0  0  2  0  0  0  0  0  0  0  0  0
    5.9890    6.8270   14.4130 C   0  0  0  0  0  0  0  0  0  0  0  0
    8.2460    5.7700   14.2040 C   0  0  0  0  0  0  0  0  0  0  0  0
    9.1290    6.2830   13.4410 O   0  5  0  0  0  0  0  0  0  0  0  0
    8.1520    4.5240   14.1370 O   0  0  0  0  0  0  0  0  0  0  0  0
   17.3820   19.1440   34.1400 P   0  0  1  0  0  0  0  0  0  0  0  0
   16.6110   19.6400   35.3220 O   0  0  0  0  0  1  0  0  0  0  0  0
   17.8150   17.7300   34.0840 O   0  0  0  0  0  0  0  0  0  0  0  0
   16.4430   19.2870   32.8620 O   0  0  0  0  0  0  0  0  0  0  0  0
   15.0810   18.8410   32.9390 C   0  0  0  0  0  0  0  0  0  0  0  0
   14.2270   19.6150   31.9690 C   0  0  1  0  0  0  0  0  0  0  0  0
   14.2440   21.0370   32.2710 O   0  0  0  0  0  0  0  0  0  0  0  0
   14.6730   19.5870   30.5220 C   0  0  1  0  0  0  0  0  0  0  0  0
   14.2770   18.3550   29.9410 O   0  0  0  0  0  0  0  0  0  0  0  0
   13.8910   20.7640   29.9410 C   0  0  1  0  0  0  0  0  0  0  0  0
   12.5490   20.4230   29.6750 O   0  0  0  0  0  0  0  0  0  0  0  0
   14.0060   21.7840   31.0730 C   0  0  2  0  0  0  0  0  0  0  0  0
   15.1700   22.6560   30.8740 N   0  0  0  0  0  0  0  0  0  0  0  0
   15.0710   23.7860   30.0450 C   0  0  0  0  0  0  0  0  0  0  0  0
   13.9870   24.0400   29.4780 O   0  0  0  0  0  0  0  0  0  0  0  0
   16.1520   24.5870   29.9020 N   0  0  0  0  0  0  0  0  0  0  0  0
   17.3040   24.2670   30.5010 C   0  0  0  0  0  0  0  0  0  0  0  0
   18.3430   25.0880   30.3330 N   0  0  0  0  0  0  0  0  0  0  0  0
   17.4230   23.1310   31.3540 C   0  0  0  0  0  0  0  0  0  0  0  0
   16.3430   22.3690   31.5180 C   0  0  0  0  0  0  0  0  0  0  0  0
   15.0910   17.8960   28.6370 P   0  0  2  0  0  0  0  0  0  0  0  0
   14.4770   16.6280   28.1340 O   0  0  0  0  0  1  0  0  0  0  0  0
   16.5770   17.9710   28.8950 O   0  0  0  0  0  0  0  0  0  0  0  0
   14.6620   19.0290   27.6260 O   0  0  0  0  0  0  0  0  0  0  0  0
   13.5050   18.8960   26.7840 C   0  0  0  0  0  0  0  0  0  0  0  0
   13.4930   19.9800   25.7560 C   0  0  1  0  0  0  0  0  0  0  0  0
   13.8270   21.2450   26.3930 O   0  0  0  0  0  0  0  0  0  0  0  0
   14.5080   19.8360   24.6380 C   0  0  1  0  0  0  0  0  0  0  0  0
   13.9250   19.0030   23.6130 O   0  0  0  0  0  0  0  0  0  0  0  0
   14.6470   21.2870   24.1590 C   0  0  1  0  0  0  0  0  0  0  0  0
   13.5960   21.4830   23.2120 O   0  0  0  0  0  0  0  0  0  0  0  0
   14.4960   22.0830   25.4760 C   0  0  2  0  0  0  0  0  0  0  0  0
   15.7690   22.4930   26.1060 N   0  0  0  0  0  0  0  0  0  0  0  0
   16.4670   23.5800   25.5680 C   0  0  0  0  0  0  0  0  0  0  0  0
   15.9620   24.2090   24.6210 O   0  0  0  0  0  0  0  0  0  0  0  0
   17.6540   23.9410   26.1200 N   0  0  0  0  0  0  0  0  0  0  0  0
   18.1680   23.2190   27.1230 C   0  0  0  0  0  0  0  0  0  0  0  0
   19.3370   23.6070   27.6420 N   0  0  0  0  0  0  0  0  0  0  0  0
   17.5000   22.0730   27.6500 C   0  0  0  0  0  0  0  0  0  0  0  0
   16.3260   21.7390   27.1040 C   0  0  0  0  0  0  0  0  0  0  0  0
   15.5690   19.0220   21.6720 O   0  0  0  0  0  1  0  0  0  0  0  0
   15.2000   18.0970   22.8840 P   0  0  1  0  0  0  0  0  0  0  0  0
   16.4410   17.7450   23.6490 O   0  0  0  0  0  0  0  0  0  0  0  0
   14.1710   16.8620   22.1820 O   0  0  0  0  0  0  0  0  0  0  0  0
   14.4740   16.4430   20.8750 C   0  0  0  0  0  0  0  0  0  0  0  0
   13.8080   15.0900   20.8060 C   0  0  2  0  0  0  0  0  0  0  0  0
   12.2800   15.0940   20.6550 C   0  0  1  0  0  0  0  0  0  0  0  0
   12.0450   14.2960   19.5060 O   0  0  0  0  0  0  0  0  0  0  0  0
   11.7270   14.4600   21.9590 C   0  0  1  0  0  0  0  0  0  0  0  0
   10.5290   13.8000   21.7900 N   0  0  0  0  0  0  0  0  0  0  0  0
   10.1120   12.5750   21.3870 C   0  0  0  0  0  0  0  0  0  0  0  0
    8.6680   12.5780   21.3470 C   0  0  0  0  0  0  0  0  0  0  0  0
    7.6890   11.4220   21.0140 C   0  0  0  0  0  0  0  0  0  0  0  0
    7.2640   11.0940   22.4140 C   0  0  0  0  0  0  0  0  0  0  0  0
    8.3160   13.8460   21.7220 N   0  0  0  0  0  0  0  0  0  0  0  0
    9.4070   14.6310   22.0060 N   0  0  0  0  0  0  0  0  0  0  0  0
   12.8980   13.4800   22.2310 C   0  0  1  0  0  0  0  0  0  0  0  0
   14.0940   14.3030   22.0090 O   0  0  0  0  0  0  0  0  0  0  0  0
   12.9130   13.1360   23.6200 N   0  0  0  0  0  0  0  0  0  0  0  0
   12.6170   11.9330   24.1690 C   0  0  0  0  0  0  0  0  0  0  0  0
   12.8190   12.0530   25.6040 C   0  0  0  0  0  0  0  0  0  0  0  0
   13.2780   13.3570   25.8060 N   0  0  0  0  0  0  0  0  0  0  0  0
   13.3330   13.9740   24.6200 C   0  0  0  0  0  0  0  0  0  0  0  0
   12.2200   10.7830   23.6050 N   0  0  0  0  0  0  0  0  0  0  0  0
   11.9290    9.7420   24.4310 C   0  0  0  0  0  0  0  0  0  0  0  0
   12.0750    9.7090   25.7480 N   0  0  0  0  0  0  0  0  0  0  0  0
   12.5420   10.8660   26.4010 C   0  0  0  0  0  0  0  0  0  0  0  0
   12.7150   10.9220   27.7050 N   0  0  0  0  0  0  0  0  0  0  0  0
    6.8460   -5.5740   19.2140 N   0  0  0  0  0  0  0  0  0  0  0  0
    5.8060   -6.0580   20.0380 C   0  0  0  0  0  0  0  0  0  0  0  0
    5.4690   -7.4070   19.9760 N   0  0  0  0  0  0  0  0  0  0  0  0
    6.1970   -8.1910   19.1730 C   0  0  0  0  0  0  0  0  0  0  0  0
    7.2210   -7.7000   18.3440 C   0  0  0  0  0  0  0  0  0  0  0  0
    7.5250   -6.3470   18.3480 C   0  0  0  0  0  0  0  0  0  0  0  0
    5.1500   -5.3200   20.7500 O   0  0  0  0  0  0  0  0  0  0  0  0
    5.9350   -9.4590   19.1200 O   0  0  0  0  0  0  0  0  0  0  0  0
    7.1800   -4.1310   19.3490 C   0  0  1  0  0  0  0  0  0  0  0  0
    8.6550   -3.9540   19.5980 C   0  0  2  0  0  0  0  0  0  0  0  0
    8.9460   -4.1930   20.9650 O   0  0  0  0  0  0  0  0  0  0  0  0
    8.8700   -2.4840   19.3030 C   0  0  1  0  0  0  0  0  0  0  0  0
    7.8080   -2.2580   18.2350 C   0  0  2  0  0  0  0  0  0  0  0  0
    7.1140   -3.5220   18.1140 O   0  0  0  0  0  0  0  0  0  0  0  0
    8.4000   -1.6120   20.3310 O   0  0  0  0  0  0  0  0  0  0  0  0
    8.3510   -1.9860   16.8690 C   0  0  0  0  0  0  0  0  0  0  0  0
    9.0380   -0.6900   16.8950 O   0  0  0  0  0  0  0  0  0  0  0  0
    9.3320    0.0960   15.6500 P   0  0  1  0  0  0  0  0  0  0  0  0
    8.1670    0.3520   14.7440 O   0  0  0  0  0  1  0  0  0  0  0  0
   10.0990    1.3400   16.0550 O   0  0  0  0  0  0  0  0  0  0  0  0
   10.3170   -0.9210   14.8760 O   0  0  0  0  0  0  0  0  0  0  0  0
   11.6270   -0.6100   14.0470 P   0  0  2  0  0  0  0  0  0  0  0  0
   11.3710    0.5290   13.1330 O   0  0  0  0  0  1  0  0  0  0  0  0
   12.0780   -1.9710   13.4680 O   0  0  0  0  0  0  0  0  0  0  0  0
   13.2980   -0.8570   16.1690 C   0  0  1  0  0  0  0  0  0  0  0  0
   13.5680    0.0510   17.3470 C   0  0  1  0  0  0  0  0  0  0  0  0
   14.4960    1.1840   16.8730 C   0  0  2  0  0  0  0  0  0  0  0  0
   15.7490    0.6030   16.1730 C   0  0  1  0  0  0  0  0  0  0  0  0
   15.3520   -0.3570   15.0600 C   0  0  1  0  0  0  0  0  0  0  0  0
   16.5930   -1.1510   14.6680 C   0  0  0  0  0  0  0  0  0  0  0  0
   11.7190    0.2090   19.0220 C   0  0  0  0  0  0  0  0  0  0  0  0
   10.4110    0.8150   19.4490 C   0  0  0  0  0  0  0  0  0  0  0  0
   14.1650    3.1180   18.3340 C   0  0  1  0  0  0  0  0  0  0  0  0
   13.4580    2.9370   19.6380 C   0  0  0  0  0  0  0  0  0  0  0  0
   15.1830    4.2940   18.4250 C   0  0  0  0  0  0  0  0  0  0  0  0
   12.6680   -0.0760   15.1670 O   0  0  0  0  0  0  0  0  0  0  0  0
   14.9140    1.9450   18.0040 O   0  0  0  0  0  0  0  0  0  0  0  0
   16.4930    1.6820   15.5650 O   0  0  0  0  0  0  0  0  0  0  0  0
   14.5110   -1.3750   15.6060 O   0  0  0  0  0  0  0  0  0  0  0  0
   16.3520   -1.8180   13.4190 O   0  0  0  0  0  0  0  0  0  0  0  0
   12.3110   -0.5450   19.7910 O   0  0  0  0  0  0  0  0  0  0  0  0
   12.3670    3.5250   19.7690 O   0  0  0  0  0  0  0  0  0  0  0  0
   12.2780    0.5710   17.8700 N   0  0  0  0  0  0  0  0  0  0  0  0
   14.9843    1.7805   20.4145 H   0  0  0  0  0  0  0  0  0  0  0  0
   12.3906    1.3337   21.5845 H   0  0  0  0  0  0  0  0  0  0  0  0
   13.7693    0.4708   23.5062 H   0  0  0  0  0  0  0  0  0  0  0  0
   15.2284    1.2090   22.7627 H   0  0  0  0  0  0  0  0  0  0  0  0
   14.3660   -0.1219   21.9190 H   0  0  0  0  0  0  0  0  0  0  0  0
   14.6958    3.9905   22.0470 H   0  0  0  0  0  0  0  0  0  0  0  0
   12.6974    5.1918   23.8956 H   0  0  0  0  0  0  0  0  0  0  0  0
   14.8840    6.4963   22.1904 H   0  0  0  0  0  0  0  0  0  0  0  0
   13.7230    7.3654   23.2503 H   0  0  0  0  0  0  0  0  0  0  0  0
   12.8118    5.6381   20.8819 H   0  0  0  0  0  0  0  0  0  0  0  0
   13.2143    7.3805   20.7126 H   0  0  0  0  0  0  0  0  0  0  0  0
   10.8445    6.6272   19.9002 H   0  0  0  0  0  0  0  0  0  0  0  0
    8.8233    7.1981   22.0616 H   0  0  0  0  0  0  0  0  0  0  0  0
    8.8286    9.4616   20.0375 H   0  0  0  0  0  0  0  0  0  0  0  0
   10.3249    9.4356   21.0310 H   0  0  0  0  0  0  0  0  0  0  0  0
    9.0646    4.9680   20.2713 H   0  0  0  0  0  0  0  0  0  0  0  0
    6.6862    5.2039   18.7169 H   0  0  0  0  0  0  0  0  0  0  0  0
    7.4129    3.0908   17.5906 H   0  0  0  0  0  0  0  0  0  0  0  0
    7.5771    3.0151   19.3777 H   0  0  0  0  0  0  0  0  0  0  0  0
    9.0302    3.2665   18.3521 H   0  0  0  0  0  0  0  0  0  0  0  0
    6.1248    5.6274   16.6412 H   0  0  0  0  0  0  0  0  0  0  0  0
    7.7895    7.5657   15.3482 H   0  0  0  0  0  0  0  0  0  0  0  0
    6.1694    7.3596   13.4676 H   0  0  0  0  0  0  0  0  0  0  0  0
    5.3268    7.4291   15.0525 H   0  0  0  0  0  0  0  0  0  0  0  0
    5.5136    5.8576   14.2027 H   0  0  0  0  0  0  0  0  0  0  0  0
   18.1996   19.7264   34.0487 H   0  0  0  0  0  0  0  0  0  0  0  0
   14.7041   18.9975   33.9605 H   0  0  0  0  0  0  0  0  0  0  0  0
   15.0342   17.7704   32.6908 H   0  0  0  0  0  0  0  0  0  0  0  0
   13.2022   19.2217   32.0411 H   0  0  0  0  0  0  0  0  0  0  0  0
   15.7589   19.7269   30.4162 H   0  0  0  0  0  0  0  0  0  0  0  0
   14.3587   21.1375   29.0181 H   0  0  0  0  0  0  0  0  0  0  0  0
   12.5230   19.7094   29.0485 H   0  0  0  0  0  0  0  0  0  0  0  0
   13.0858   22.3818   31.1496 H   0  0  0  0  0  0  0  0  0  0  0  0
   16.0896   25.4177   29.3488 H   0  0  0  0  0  0  0  0  0  0  0  0
   19.2269   24.8782   30.7698 H   0  0  0  0  0  0  0  0  0  0  0  0
   18.3618   22.8951   31.8529 H   0  0  0  0  0  0  0  0  0  0  0  0
   16.3942   21.5027   32.1759 H   0  0  0  0  0  0  0  0  0  0  0  0
   12.5963   18.9680   27.3997 H   0  0  0  0  0  0  0  0  0  0  0  0
   13.5308   17.9179   26.2814 H   0  0  0  0  0  0  0  0  0  0  0  0
   12.4843   20.0263   25.3196 H   0  0  0  0  0  0  0  0  0  0  0  0
   15.4661   19.4202   24.9830 H   0  0  0  0  0  0  0  0  0  0  0  0
   15.6215   21.4889   23.6904 H   0  0  0  0  0  0  0  0  0  0  0  0
   13.7000   20.8699   22.4938 H   0  0  0  0  0  0  0  0  0  0  0  0
   13.8966   22.9835   25.2763 H   0  0  0  0  0  0  0  0  0  0  0  0
   18.1426   24.7438   25.7782 H   0  0  0  0  0  0  0  0  0  0  0  0
   19.7508   23.0847   28.3983 H   0  0  0  0  0  0  0  0  0  0  0  0
   17.9299   21.4930   28.4653 H   0  0  0  0  0  0  0  0  0  0  0  0
   15.8038   20.8519   27.4593 H   0  0  0  0  0  0  0  0  0  0  0  0
   15.5606   16.3597   20.7256 H   0  0  0  0  0  0  0  0  0  0  0  0
   14.0529   17.1323   20.1284 H   0  0  0  0  0  0  0  0  0  0  0  0
   14.2305   14.5709   19.9330 H   0  0  0  0  0  0  0  0  0  0  0  0
   11.8754   16.1075   20.5172 H   0  0  0  0  0  0  0  0  0  0  0  0
   11.1106   14.2472   19.3414 H   0  0  0  0  0  0  0  0  0  0  0  0
   11.6159   15.2056   22.7600 H   0  0  0  0  0  0  0  0  0  0  0  0
   10.7553   11.7328   21.1363 H   0  0  0  0  0  0  0  0  0  0  0  0
    8.1944   10.5769   20.5238 H   0  0  0  0  0  0  0  0  0  0  0  0
    6.8464   11.7567   20.3911 H   0  0  0  0  0  0  0  0  0  0  0  0
    7.5396   11.8570   23.1569 H   0  0  0  0  0  0  0  0  0  0  0  0
    6.1951   10.8541   22.5138 H   0  0  0  0  0  0  0  0  0  0  0  0
   12.8593   12.5896   21.5863 H   0  0  0  0  0  0  0  0  0  0  0  0
   13.6655   15.0001   24.4700 H   0  0  0  0  0  0  0  0  0  0  0  0
   11.5368    8.8461   23.9634 H   0  0  0  0  0  0  0  0  0  0  0  0
   12.5244   10.0930   28.2859 H   0  0  0  0  0  0  0  0  0  0  0  0
   13.0409   11.7948   28.1443 H   0  0  0  0  0  0  0  0  0  0  0  0
    4.7102   -7.7767   20.5123 H   0  0  0  0  0  0  0  0  0  0  0  0
    7.7747   -8.3813   17.6996 H   0  0  0  0  0  0  0  0  0  0  0  0
    8.2782   -5.9300   17.6812 H   0  0  0  0  0  0  0  0  0  0  0  0
    6.5489   -3.6487   20.1099 H   0  0  0  0  0  0  0  0  0  0  0  0
    9.2632   -4.6021   18.9499 H   0  0  0  0  0  0  0  0  0  0  0  0
    8.4610   -3.5784   21.5030 H   0  0  0  0  0  0  0  0  0  0  0  0
    9.9030   -2.2600   18.9985 H   0  0  0  0  0  0  0  0  0  0  0  0
    7.1330   -1.4454   18.5416 H   0  0  0  0  0  0  0  0  0  0  0  0
    8.9874   -1.6574   21.0763 H   0  0  0  0  0  0  0  0  0  0  0  0
    7.5272   -1.9555   16.1407 H   0  0  0  0  0  0  0  0  0  0  0  0
    9.0609   -2.7774   16.5867 H   0  0  0  0  0  0  0  0  0  0  0  0
   12.6476   -1.6876   16.4807 H   0  0  0  0  0  0  0  0  0  0  0  0
   14.0714   -0.5166   18.1435 H   0  0  0  0  0  0  0  0  0  0  0  0
   13.9516    1.8318   16.1701 H   0  0  0  0  0  0  0  0  0  0  0  0
   16.3735    0.0801   16.9123 H   0  0  0  0  0  0  0  0  0  0  0  0
   14.8904    0.1705   14.2123 H   0  0  0  0  0  0  0  0  0  0  0  0
   16.8140   -1.8962   15.4463 H   0  0  0  0  0  0  0  0  0  0  0  0
   17.4484   -0.4677   14.5611 H   0  0  0  0  0  0  0  0  0  0  0  0
   10.0248    1.4579   18.6444 H   0  0  0  0  0  0  0  0  0  0  0  0
   10.5646    1.4165   20.3571 H   0  0  0  0  0  0  0  0  0  0  0  0
    9.6866    0.0140   19.6579 H   0  0  0  0  0  0  0  0  0  0  0  0
   13.4248    3.3234   17.5467 H   0  0  0  0  0  0  0  0  0  0  0  0
   15.6934    4.4127   17.4579 H   0  0  0  0  0  0  0  0  0  0  0  0
   15.9253    4.0767   19.2071 H   0  0  0  0  0  0  0  0  0  0  0  0
   14.6490    5.2228   18.6742 H   0  0  0  0  0  0  0  0  0  0  0  0
   16.7564    2.3009   16.2359 H   0  0  0  0  0  0  0  0  0  0  0  0
   15.6126   -2.4071   13.5133 H   0  0  0  0  0  0  0  0  0  0  0  0
   11.7925    1.2450   17.3132 H   0  0  0  0  0  0  0  0  0  0  0  0
  1  2  1  0  0  0  0
  1143  1  0  0  0  0
  2  3  1  0  0  0  0
  2  5  1  0  0  0  0
  2144  1  6  0  0  0
  3  4  2  0  0  0  0
  3  6  1  0  0  0  0
  5145  1  0  0  0  0
  5146  1  0  0  0  0
  5147  1  0  0  0  0
  6  7  1  0  0  0  0
  6148  1  0  0  0  0
  7  8  1  0  0  0  0
  7 10  1  0  0  0  0
  7149  1  1  0  0  0
  8  9  1  0  0  0  0
  8 14  2  0  0  0  0
 10 11  1  0  0  0  0
 10150  1  0  0  0  0
 10151  1  0  0  0  0
 11 12  1  0  0  0  0
 11152  1  0  0  0  0
 11153  1  0  0  0  0
 12 13  2  0  0  0  0
 12 15  1  0  0  0  0
 15 16  1  0  0  0  0
 15154  1  0  0  0  0
 16 17  1  0  0  0  0
 16 19  1  0  0  0  0
 16155  1  1  0  0  0
 17 18  2  0  0  0  0
 17 21  1  0  0  0  0
 19 20  1  0  0  0  0
 19156  1  0  0  0  0
 19157  1  0  0  0  0
 20 85  1  0  0  0  0
 21 22  1  0  0  0  0
 21158  1  0  0  0  0
 22 23  1  0  0  0  0
 22 24  1  0  0  0  0
 22159  1  1  0  0  0
 23160  1  0  0  0  0
 23161  1  0  0  0  0
 23162  1  0  0  0  0
 24 25  2  0  0  0  0
 24 26  1  0  0  0  0
 26 27  1  0  0  0  0
 26163  1  0  0  0  0
 27 28  1  0  0  0  0
 27 29  1  0  0  0  0
 27164  1  1  0  0  0
 28165  1  0  0  0  0
 28166  1  0  0  0  0
 28167  1  0  0  0  0
 29 30  1  0  0  0  0
 29 31  2  0  0  0  0
 32 33  1  0  0  0  0
 32 34  2  0  0  0  0
 32168  1  6  0  0  0
 35 32  1  0  0  0  0
 36 35  1  0  0  0  0
 36169  1  0  0  0  0
 36170  1  0  0  0  0
 37 36  1  0  0  0  0
 37 38  1  0  0  0  0
 37171  1  1  0  0  0
 39 37  1  0  0  0  0
 39 41  1  0  0  0  0
 39172  1  6  0  0  0
 40 39  1  0  0  0  0
 41 42  1  0  0  0  0
 41 43  1  0  0  0  0
 41173  1  6  0  0  0
 42174  1  0  0  0  0
 43 38  1  0  0  0  0
 43 44  1  0  0  0  0
 43175  1  1  0  0  0
 44 45  1  0  0  0  0
 44 51  1  0  0  0  0
 45 46  2  0  0  0  0
 45 47  1  0  0  0  0
 47 48  1  0  0  0  0
 47176  1  0  0  0  0
 48 49  2  0  0  0  0
 49177  1  0  0  0  0
 50 48  1  0  0  0  0
 50178  1  0  0  0  0
 51 50  2  0  0  0  0
 51179  1  0  0  0  0
 52 40  1  0  0  0  0
 52 53  1  6  0  0  0
 52 54  2  0  0  0  0
 55 52  1  0  0  0  0
 56 55  1  0  0  0  0
 56180  1  0  0  0  0
 56181  1  0  0  0  0
 57 56  1  0  0  0  0
 57 58  1  0  0  0  0
 57182  1  6  0  0  0
 59 57  1  0  0  0  0
 59 61  1  0  0  0  0
 59183  1  1  0  0  0
 60 59  1  0  0  0  0
 61 62  1  0  0  0  0
 61 63  1  0  0  0  0
 61184  1  6  0  0  0
 62185  1  0  0  0  0
 63 58  1  0  0  0  0
 63 64  1  0  0  0  0
 63186  1  6  0  0  0
 64 65  1  0  0  0  0
 64 71  1  0  0  0  0
 65 66  2  0  0  0  0
 65 67  1  0  0  0  0
 67 68  1  0  0  0  0
 67187  1  0  0  0  0
 68 69  2  0  0  0  0
 69188  1  0  0  0  0
 70 68  1  0  0  0  0
 70189  1  0  0  0  0
 71 70  2  0  0  0  0
 71190  1  0  0  0  0
 73 60  1  0  0  0  0
 73 72  1  6  0  0  0
 73 74  2  0  0  0  0
 75 73  1  0  0  0  0
 76 75  1  0  0  0  0
 76191  1  0  0  0  0
 76192  1  0  0  0  0
 77 76  1  0  0  0  0
 77193  1  6  0  0  0
 78 77  1  0  0  0  0
 78 79  1  0  0  0  0
 78194  1  6  0  0  0
 79195  1  0  0  0  0
 80 78  1  0  0  0  0
 80 88  1  0  0  0  0
 80196  1  1  0  0  0
 81 80  1  0  0  0  0
 82 81  1  0  0  0  0
 82197  1  0  0  0  0
 83 82  2  0  0  0  0
 83 86  1  0  0  0  0
 84 83  1  0  0  0  0
 84198  1  0  0  0  0
 84199  1  0  0  0  0
 85 84  1  0  0  0  0
 85200  1  0  0  0  0
 85201  1  0  0  0  0
 86 87  2  0  0  0  0
 87 81  1  0  0  0  0
 88 89  1  0  0  0  0
 88 90  1  0  0  0  0
 88202  1  6  0  0  0
 89 77  1  0  0  0  0
 90 91  1  0  0  0  0
 90 94  1  0  0  0  0
 91 92  2  0  0  0  0
 91 95  1  0  0  0  0
 92 98  1  0  0  0  0
 93 92  1  0  0  0  0
 94 93  2  0  0  0  0
 94203  1  0  0  0  0
 95 96  2  0  0  0  0
 96 97  1  0  0  0  0
 96204  1  0  0  0  0
 98 97  2  0  0  0  0
 98 99  1  0  0  0  0
 99205  1  0  0  0  0
 99206  1  0  0  0  0
100101  1  0  0  0  0
100105  1  0  0  0  0
101102  1  0  0  0  0
101106  2  0  0  0  0
102103  1  0  0  0  0
102207  1  0  0  0  0
103107  2  0  0  0  0
104103  1  0  0  0  0
104208  1  0  0  0  0
105104  2  0  0  0  0
105209  1  0  0  0  0
108100  1  0  0  0  0
108109  1  0  0  0  0
108210  1  1  0  0  0
109110  1  0  0  0  0
109211  1  6  0  0  0
110212  1  0  0  0  0
111109  1  0  0  0  0
111114  1  0  0  0  0
111213  1  6  0  0  0
112111  1  0  0  0  0
112113  1  0  0  0  0
112214  1  1  0  0  0
113108  1  0  0  0  0
114215  1  0  0  0  0
115112  1  0  0  0  0
115216  1  0  0  0  0
115217  1  0  0  0  0
116115  1  0  0  0  0
117116  1  0  0  0  0
117118  1  6  0  0  0
117119  2  0  0  0  0
120117  1  0  0  0  0
121120  1  0  0  0  0
121122  1  6  0  0  0
121123  2  0  0  0  0
124135  1  0  0  0  0
124138  1  0  0  0  0
124218  1  1  0  0  0
125124  1  0  0  0  0
125142  1  0  0  0  0
125219  1  1  0  0  0
126125  1  0  0  0  0
126127  1  0  0  0  0
126220  1  6  0  0  0
127128  1  0  0  0  0
127137  1  0  0  0  0
127221  1  1  0  0  0
128129  1  0  0  0  0
128138  1  0  0  0  0
128222  1  6  0  0  0
129139  1  0  0  0  0
129223  1  0  0  0  0
129224  1  0  0  0  0
130131  1  0  0  0  0
130140  2  0  0  0  0
131225  1  0  0  0  0
131226  1  0  0  0  0
131227  1  0  0  0  0
132133  1  0  0  0  0
132134  1  0  0  0  0
132136  1  0  0  0  0
132228  1  6  0  0  0
133  1  1  0  0  0  0
133141  2  0  0  0  0
134229  1  0  0  0  0
134230  1  0  0  0  0
134231  1  0  0  0  0
135121  1  0  0  0  0
136126  1  0  0  0  0
137232  1  0  0  0  0
139233  1  0  0  0  0
142130  1  0  0  0  0
142234  1  0  0  0  0
M  CHG  2   9  -1  30  -1
M  END
