4ijl_ligand
 OpenBabel08222323353D

 37 40  0  0  0  0  0  0  0  0999 V2000
   -5.1840  -14.6600    6.0380 C   0  0  0  0  0  0  0  0  0  0  0  0
   -6.3150  -14.0510    5.4970 C   0  0  0  0  0  0  0  0  0  0  0  0
   -6.1830  -12.8380    4.8190 C   0  0  0  0  0  0  0  0  0  0  0  0
   -4.9230  -12.2460    4.6750 C   0  0  0  0  0  0  0  0  0  0  0  0
   -3.7850  -12.8440    5.2140 C   0  0  0  0  0  0  0  0  0  0  0  0
   -3.9330  -14.0530    5.8940 C   0  0  0  0  0  0  0  0  0  0  0  0
   -7.2890  -11.8090    4.0390 S   0  0  0  0  0  0  0  0  0  0  0  0
   -6.2210  -10.6340    3.4950 C   0  0  0  0  0  0  0  0  0  0  0  0
   -4.9490  -11.0080    3.9390 C   0  0  0  0  0  0  0  0  0  0  0  0
   -6.5660   -9.3950    2.7470 C   0  0  0  0  0  0  0  0  0  0  0  0
   -6.0540   -8.9240    1.5540 N   0  0  0  0  0  0  0  0  0  0  0  0
   -6.7130   -7.7400    1.3340 C   0  0  0  0  0  0  0  0  0  0  0  0
   -7.5610   -7.5150    2.3290 N   0  0  0  0  0  0  0  0  0  0  0  0
   -7.4690   -8.5170    3.1910 N   0  0  0  0  0  0  0  0  0  0  0  0
   -6.4960   -6.6720   -0.0390 S   0  0  0  0  0  0  0  0  0  0  0  0
   -7.9270   -5.6460    0.0200 C   0  0  0  0  0  0  0  0  0  0  0  0
   -8.0160   -4.8590   -1.2300 C   0  0  0  0  0  0  0  0  0  0  0  0
   -8.9280   -4.0070   -1.3810 O   0  5  0  0  0  0  0  0  0  0  0  0
   -7.1240   -5.0800   -2.1130 O   0  0  0  0  0  0  0  0  0  0  0  0
   -5.0800   -9.4800    0.6600 C   0  0  0  0  0  0  0  0  0  0  0  0
   -3.8840   -8.8080    0.4140 C   0  0  0  0  0  0  0  0  0  0  0  0
   -2.9590   -9.3690   -0.4700 C   0  0  0  0  0  0  0  0  0  0  0  0
   -3.2340  -10.5780   -1.1060 C   0  0  0  0  0  0  0  0  0  0  0  0
   -4.4360  -11.2440   -0.8620 C   0  0  0  0  0  0  0  0  0  0  0  0
   -5.3600  -10.6810    0.0170 C   0  0  0  0  0  0  0  0  0  0  0  0
   -3.5140  -10.0940    3.6330 Cl  0  0  0  0  0  0  0  0  0  0  0  0
   -5.2742  -15.6010    6.5685 H   0  0  0  0  0  0  0  0  0  0  0  0
   -7.2889  -14.5154    5.6019 H   0  0  0  0  0  0  0  0  0  0  0  0
   -2.8104  -12.3816    5.1075 H   0  0  0  0  0  0  0  0  0  0  0  0
   -3.0589  -14.5322    6.3200 H   0  0  0  0  0  0  0  0  0  0  0  0
   -7.8547   -4.9635    0.8796 H   0  0  0  0  0  0  0  0  0  0  0  0
   -8.8248   -6.2730    0.1242 H   0  0  0  0  0  0  0  0  0  0  0  0
   -3.6744   -7.8630    0.9019 H   0  0  0  0  0  0  0  0  0  0  0  0
   -2.0212   -8.8605   -0.6624 H   0  0  0  0  0  0  0  0  0  0  0  0
   -2.5113  -11.0030   -1.7931 H   0  0  0  0  0  0  0  0  0  0  0  0
   -4.6486  -12.1881   -1.3503 H   0  0  0  0  0  0  0  0  0  0  0  0
   -6.3032  -11.1827    0.2006 H   0  0  0  0  0  0  0  0  0  0  0  0
  1  2  2  0  0  0  0
  1  6  1  0  0  0  0
  1 27  1  0  0  0  0
  2  3  1  0  0  0  0
  2 28  1  0  0  0  0
  3  4  2  0  0  0  0
  3  7  1  0  0  0  0
  4  5  1  0  0  0  0
  4  9  1  0  0  0  0
  5  6  2  0  0  0  0
  5 29  1  0  0  0  0
  6 30  1  0  0  0  0
  7  8  1  0  0  0  0
  8  9  2  0  0  0  0
  8 10  1  0  0  0  0
  9 26  1  0  0  0  0
 10 11  1  0  0  0  0
 10 14  2  0  0  0  0
 11 12  1  0  0  0  0
 11 20  1  0  0  0  0
 12 13  2  0  0  0  0
 12 15  1  0  0  0  0
 13 14  1  0  0  0  0
 15 16  1  0  0  0  0
 16 17  1  0  0  0  0
 16 31  1  0  0  0  0
 16 32  1  0  0  0  0
 17 18  1  0  0  0  0
 17 19  2  0  0  0  0
 20 21  2  0  0  0  0
 20 25  1  0  0  0  0
 21 22  1  0  0  0  0
 21 33  1  0  0  0  0
 22 23  2  0  0  0  0
 22 34  1  0  0  0  0
 23 24  1  0  0  0  0
 23 35  1  0  0  0  0
 24 25  2  0  0  0  0
 24 36  1  0  0  0  0
 25 37  1  0  0  0  0
M  CHG  1  18  -1
M  END
