4ijp_ligand
 OpenBabel08222323353D

 42 45  0  0  0  0  0  0  0  0999 V2000
  -20.6170  -32.6050   18.5280 C   0  0  0  0  0  0  0  0  0  0  0  0
  -19.2940  -33.0170   18.6980 C   0  0  0  0  0  0  0  0  0  0  0  0
  -18.0010  -31.9730   18.2200 Cl  0  0  0  0  0  0  0  0  0  0  0  0
  -19.0190  -34.2260   19.2320 N   0  0  0  0  0  0  0  0  0  0  0  0
  -19.9870  -35.0570   19.6050 C   0  0  0  0  0  0  0  0  0  0  0  0
  -21.3270  -34.6980   19.4660 C   0  0  0  0  0  0  0  0  0  0  0  0
  -21.6470  -33.4460   18.9450 C   0  0  0  0  0  0  0  0  0  0  0  0
  -23.1130  -33.0640   18.7430 C   0  0  0  0  0  0  0  0  0  0  0  0
  -23.5570  -31.9150   19.5560 N   0  0  0  0  0  0  0  0  0  0  0  0
  -23.3420  -30.6450   19.2060 C   0  0  0  0  0  0  0  0  0  0  0  0
  -22.7370  -30.3060   18.1900 O   0  0  0  0  0  0  0  0  0  0  0  0
  -23.9400  -29.5810   20.1390 C   0  0  0  0  0  0  0  0  0  0  0  0
  -23.7040  -27.9280   19.9910 S   0  0  0  0  0  0  0  0  0  0  0  0
  -24.8090  -29.7910   21.1340 C   0  0  0  0  0  0  0  0  0  0  0  0
  -25.2160  -28.6620   21.7580 C   0  0  0  0  0  0  0  0  0  0  0  0
  -24.7270  -27.5110   21.2650 C   0  0  0  0  0  0  0  0  0  0  0  0
  -24.9360  -26.1810   21.6550 C   0  0  0  0  0  0  0  0  0  0  0  0
  -23.9090  -25.2430   21.5000 C   0  0  0  0  0  0  0  0  0  0  0  0
  -24.0910  -23.9090   21.8580 C   0  0  0  0  0  0  0  0  0  0  0  0
  -25.3250  -23.4910   22.3460 C   0  0  0  0  0  0  0  0  0  0  0  0
  -26.3650  -24.4110   22.4840 C   0  0  0  0  0  0  0  0  0  0  0  0
  -27.9380  -24.2280   23.0560 S   0  0  0  0  0  0  0  0  0  0  0  0
  -26.1970  -25.7710   22.1360 C   0  0  0  0  0  0  0  0  0  0  0  0
  -27.3220  -26.4980   22.3570 C   0  0  0  0  0  0  0  0  0  0  0  0
  -28.3680  -25.8270   22.8530 C   0  0  0  0  0  0  0  0  0  0  0  0
  -29.7420  -26.4150   23.2030 C   0  0  0  0  0  0  0  0  0  0  0  0
  -30.5640  -25.7530   23.8350 O   0  0  0  0  0  0  0  0  0  0  0  0
  -29.9570  -27.6620   22.7890 N   0  0  0  0  0  0  0  0  0  0  0  0
  -20.8400  -31.6444   18.0779 H   0  0  0  0  0  0  0  0  0  0  0  0
  -19.7318  -36.0245   20.0219 H   0  0  0  0  0  0  0  0  0  0  0  0
  -22.1116  -35.3857   19.7602 H   0  0  0  0  0  0  0  0  0  0  0  0
  -23.7350  -33.9326   19.0050 H   0  0  0  0  0  0  0  0  0  0  0  0
  -23.2611  -32.8135   17.6822 H   0  0  0  0  0  0  0  0  0  0  0  0
  -24.0427  -32.0969   20.4110 H   0  0  0  0  0  0  0  0  0  0  0  0
  -25.1579  -30.7831   21.4167 H   0  0  0  0  0  0  0  0  0  0  0  0
  -25.8975  -28.6841   22.6071 H   0  0  0  0  0  0  0  0  0  0  0  0
  -22.9551  -25.5600   21.0942 H   0  0  0  0  0  0  0  0  0  0  0  0
  -23.2763  -23.2011   21.7570 H   0  0  0  0  0  0  0  0  0  0  0  0
  -25.4782  -22.4530   22.6184 H   0  0  0  0  0  0  0  0  0  0  0  0
  -27.3703  -27.5647   22.1431 H   0  0  0  0  0  0  0  0  0  0  0  0
  -30.8304  -28.1092   22.9817 H   0  0  0  0  0  0  0  0  0  0  0  0
  -29.2451  -28.1514   22.2854 H   0  0  0  0  0  0  0  0  0  0  0  0
  1  2  2  0  0  0  0
  1  7  1  0  0  0  0
  1 29  1  0  0  0  0
  2  3  1  0  0  0  0
  2  4  1  0  0  0  0
  4  5  2  0  0  0  0
  5  6  1  0  0  0  0
  5 30  1  0  0  0  0
  6  7  2  0  0  0  0
  6 31  1  0  0  0  0
  7  8  1  0  0  0  0
  8  9  1  0  0  0  0
  8 32  1  0  0  0  0
  8 33  1  0  0  0  0
  9 10  1  0  0  0  0
  9 34  1  0  0  0  0
 10 11  2  0  0  0  0
 10 12  1  0  0  0  0
 12 13  1  0  0  0  0
 12 14  2  0  0  0  0
 13 16  1  0  0  0  0
 14 15  1  0  0  0  0
 14 35  1  0  0  0  0
 15 16  2  0  0  0  0
 15 36  1  0  0  0  0
 16 17  1  0  0  0  0
 17 18  2  0  0  0  0
 17 23  1  0  0  0  0
 18 19  1  0  0  0  0
 18 37  1  0  0  0  0
 19 20  2  0  0  0  0
 19 38  1  0  0  0  0
 20 21  1  0  0  0  0
 20 39  1  0  0  0  0
 21 22  1  0  0  0  0
 21 23  2  0  0  0  0
 22 25  1  0  0  0  0
 23 24  1  0  0  0  0
 24 25  2  0  0  0  0
 24 40  1  0  0  0  0
 25 26  1  0  0  0  0
 26 27  2  0  0  0  0
 26 28  1  0  0  0  0
 28 41  1  0  0  0  0
 28 42  1  0  0  0  0
M  END
