4ikn_ligand
 OpenBabel08222323353D

 96 96  0  0  1  0  0  0  0  0999 V2000
  -13.3650  -10.8820    2.8360 N   0  3  0  0  0  0  0  0  0  0  0  0
  -13.2990  -10.0790    1.5460 C   0  0  2  0  0  0  0  0  0  0  0  0
  -13.3350   -8.5440    1.7860 C   0  0  0  0  0  0  0  0  0  0  0  0
  -12.5500   -7.7670    1.2090 O   0  0  0  0  0  0  0  0  0  0  0  0
  -14.4590  -10.4550    0.6210 C   0  0  0  0  0  0  0  0  0  0  0  0
  -14.1050  -10.2770   -0.8550 C   0  0  0  0  0  0  0  0  0  0  0  0
  -14.7580   -9.4440   -1.5780 O   0  5  0  0  0  0  0  0  0  0  0  0
  -13.1460  -10.9750   -1.2780 O   0  0  0  0  0  0  0  0  0  0  0  0
  -14.2920   -8.1100    2.5990 N   0  0  0  0  0  0  0  0  0  0  0  0
  -14.3850   -6.7010    2.9920 C   0  0  2  0  0  0  0  0  0  0  0  0
  -13.4880   -6.4920    4.2100 C   0  0  0  0  0  0  0  0  0  0  0  0
  -13.4060   -7.3790    5.0650 O   0  0  0  0  0  0  0  0  0  0  0  0
  -15.8570   -6.3590    3.3020 C   0  0  0  0  0  0  0  0  0  0  0  0
  -16.6370   -6.1220    2.0490 C   0  0  0  0  0  0  0  0  0  0  0  0
  -16.7350   -4.8340    1.5370 C   0  0  0  0  0  0  0  0  0  0  0  0
  -17.2610   -7.1740    1.3530 C   0  0  0  0  0  0  0  0  0  0  0  0
  -17.3950   -4.5830    0.3880 C   0  0  0  0  0  0  0  0  0  0  0  0
  -17.9460   -6.9200    0.1190 C   0  0  0  0  0  0  0  0  0  0  0  0
  -17.9900   -5.6370   -0.3300 C   0  0  0  0  0  0  0  0  0  0  0  0
  -18.6720   -5.2920   -1.4640 O   0  0  0  0  0  0  0  0  0  0  0  0
  -12.8130   -5.3490    4.2980 N   0  0  0  0  0  0  0  0  0  0  0  0
  -12.1110   -4.9700    5.5000 C   0  0  2  0  0  0  0  0  0  0  0  0
  -13.1620   -4.4010    6.4710 C   0  0  0  0  0  0  0  0  0  0  0  0
  -13.8480   -3.4310    6.1290 O   0  0  0  0  0  0  0  0  0  0  0  0
  -11.0560   -3.9130    5.1980 C   0  0  0  0  0  0  0  0  0  0  0  0
  -10.5150   -3.1440    6.4150 C   0  0  0  0  0  0  0  0  0  0  0  0
   -9.7650   -4.0310    7.4400 C   0  0  0  0  0  0  0  0  0  0  0  0
  -10.0270   -3.9360    8.6590 O   0  0  0  0  0  0  0  0  0  0  0  0
   -8.8610   -4.9150    6.9520 N   0  0  0  0  0  0  0  0  0  0  0  0
  -13.2530   -4.9920    7.6750 N   0  0  0  0  0  0  0  0  0  0  0  0
  -14.2490   -4.5580    8.6900 C   0  0  2  0  0  0  0  0  0  0  0  0
  -13.9660   -3.1450    9.2480 C   0  0  0  0  0  0  0  0  0  0  0  0
  -12.8480   -2.8210    9.6380 O   0  0  0  0  0  0  0  0  0  0  0  0
  -14.3520   -5.6280    9.8310 C   0  0  0  0  0  0  0  0  0  0  0  0
  -15.0450   -5.1670   11.1090 C   0  0  0  0  0  0  0  0  0  0  0  0
  -14.9450   -6.2260   12.2570 C   0  0  0  0  0  0  0  0  0  0  0  0
  -16.2260   -6.3290   12.9760 N   0  0  0  0  0  0  0  0  0  0  0  0
  -17.3010   -7.0050   12.5310 C   0  0  0  0  0  3  0  0  0  0  0  0
  -18.4260   -7.0370   13.2470 N   0  0  0  0  0  0  0  0  0  0  0  0
  -17.2510   -7.6690   11.3730 N   0  0  0  0  0  0  0  0  0  0  0  0
  -14.9940   -2.3130    9.3220 N   0  0  0  0  0  0  0  0  0  0  0  0
  -14.8480   -1.0310    9.9890 C   0  0  2  0  0  0  0  0  0  0  0  0
  -15.6130   -1.0620   11.3410 C   0  0  0  0  0  0  0  0  0  0  0  0
  -16.2920   -2.0590   11.7040 O   0  5  0  0  0  0  0  0  0  0  0  0
  -15.3240    0.0910    9.0680 C   0  0  0  0  0  0  0  0  0  0  0  0
  -14.5800    0.1720    7.6960 C   0  0  0  0  0  0  0  0  0  0  0  0
  -15.4610    0.9210    6.5710 C   0  0  0  0  0  0  0  0  0  0  0  0
  -13.1010    0.7010    7.8410 C   0  0  0  0  0  0  0  0  0  0  0  0
  -15.5650   -0.0670   12.0750 O   0  0  0  0  0  0  0  0  0  0  0  0
  -13.3382  -11.8664    2.6207 H   0  0  0  0  0  0  0  0  0  0  0  0
  -14.2217  -10.6675    3.3219 H   0  0  0  0  0  0  0  0  0  0  0  0
  -12.5788  -10.6444    3.4203 H   0  0  0  0  0  0  0  0  0  0  0  0
  -12.3525  -10.3263    1.0431 H   0  0  0  0  0  0  0  0  0  0  0  0
  -15.3218   -9.8150    0.8575 H   0  0  0  0  0  0  0  0  0  0  0  0
  -14.7245  -11.5079    0.7966 H   0  0  0  0  0  0  0  0  0  0  0  0
  -14.9651   -8.7603    2.9513 H   0  0  0  0  0  0  0  0  0  0  0  0
  -14.0340   -6.0611    2.1690 H   0  0  0  0  0  0  0  0  0  0  0  0
  -15.8907   -5.4508    3.9217 H   0  0  0  0  0  0  0  0  0  0  0  0
  -16.3106   -7.1960    3.8530 H   0  0  0  0  0  0  0  0  0  0  0  0
  -16.2711   -4.0135    2.0725 H   0  0  0  0  0  0  0  0  0  0  0  0
  -17.2237   -8.1813    1.7517 H   0  0  0  0  0  0  0  0  0  0  0  0
  -17.4673   -3.5671    0.0167 H   0  0  0  0  0  0  0  0  0  0  0  0
  -18.4134   -7.7242   -0.4376 H   0  0  0  0  0  0  0  0  0  0  0  0
  -18.5857   -4.3576   -1.6121 H   0  0  0  0  0  0  0  0  0  0  0  0
  -12.7916   -4.7353    3.5088 H   0  0  0  0  0  0  0  0  0  0  0  0
  -11.6254   -5.8516    5.9438 H   0  0  0  0  0  0  0  0  0  0  0  0
  -11.4987   -3.1817    4.5057 H   0  0  0  0  0  0  0  0  0  0  0  0
  -10.2067   -4.4130    4.7094 H   0  0  0  0  0  0  0  0  0  0  0  0
  -11.3633   -2.6661    6.9269 H   0  0  0  0  0  0  0  0  0  0  0  0
   -9.8211   -2.3703    6.0545 H   0  0  0  0  0  0  0  0  0  0  0  0
   -8.3535   -5.5078    7.5773 H   0  0  0  0  0  0  0  0  0  0  0  0
   -8.7014   -4.9744    5.9666 H   0  0  0  0  0  0  0  0  0  0  0  0
  -12.6329   -5.7453    7.8943 H   0  0  0  0  0  0  0  0  0  0  0  0
  -15.2274   -4.5138    8.1893 H   0  0  0  0  0  0  0  0  0  0  0  0
  -13.3308   -5.9408   10.0943 H   0  0  0  0  0  0  0  0  0  0  0  0
  -14.9094   -6.4903    9.4365 H   0  0  0  0  0  0  0  0  0  0  0  0
  -16.1071   -4.9840   10.8887 H   0  0  0  0  0  0  0  0  0  0  0  0
  -14.5746   -4.2324   11.4486 H   0  0  0  0  0  0  0  0  0  0  0  0
  -14.1574   -5.9222   12.9623 H   0  0  0  0  0  0  0  0  0  0  0  0
  -14.6925   -7.2056   11.8250 H   0  0  0  0  0  0  0  0  0  0  0  0
  -16.3047   -5.8495   13.8842 H   0  0  0  0  0  0  0  0  0  0  0  0
  -19.2438   -7.5571   12.8983 H   0  0  0  0  0  0  0  0  0  0  0  0
  -18.4769   -6.5416   14.1486 H   0  0  0  0  0  0  0  0  0  0  0  0
  -16.3900   -7.6546   10.8079 H   0  0  0  0  0  0  0  0  0  0  0  0
  -18.0734   -8.1954   11.0452 H   0  0  0  0  0  0  0  0  0  0  0  0
  -15.8724   -2.5680    8.9178 H   0  0  0  0  0  0  0  0  0  0  0  0
  -13.7819   -0.8654   10.2035 H   0  0  0  0  0  0  0  0  0  0  0  0
  -15.1811    1.0477    9.5918 H   0  0  0  0  0  0  0  0  0  0  0  0
  -16.3949   -0.0613    8.8681 H   0  0  0  0  0  0  0  0  0  0  0  0
  -14.4830   -0.8663    7.3461 H   0  0  0  0  0  0  0  0  0  0  0  0
  -14.8983    0.9537    5.6264 H   0  0  0  0  0  0  0  0  0  0  0  0
  -15.6826    1.9465    6.9014 H   0  0  0  0  0  0  0  0  0  0  0  0
  -16.4027    0.3735    6.4181 H   0  0  0  0  0  0  0  0  0  0  0  0
  -12.5836    0.1321    8.6276 H   0  0  0  0  0  0  0  0  0  0  0  0
  -13.1177    1.7673    8.1105 H   0  0  0  0  0  0  0  0  0  0  0  0
  -12.5703    0.5723    6.8861 H   0  0  0  0  0  0  0  0  0  0  0  0
  1  2  1  0  0  0  0
  1 50  1  0  0  0  0
  1 51  1  0  0  0  0
  1 52  1  0  0  0  0
  2  3  1  0  0  0  0
  2  5  1  0  0  0  0
  2 53  1  6  0  0  0
  3  4  2  0  0  0  0
  3  9  1  0  0  0  0
  5  6  1  0  0  0  0
  5 54  1  0  0  0  0
  5 55  1  0  0  0  0
  6  7  1  0  0  0  0
  6  8  2  0  0  0  0
  9 10  1  0  0  0  0
  9 56  1  0  0  0  0
 10 11  1  0  0  0  0
 10 13  1  0  0  0  0
 10 57  1  6  0  0  0
 11 12  2  0  0  0  0
 11 21  1  0  0  0  0
 13 14  1  0  0  0  0
 13 58  1  0  0  0  0
 13 59  1  0  0  0  0
 14 15  2  0  0  0  0
 14 16  1  0  0  0  0
 15 17  1  0  0  0  0
 15 60  1  0  0  0  0
 16 18  2  0  0  0  0
 16 61  1  0  0  0  0
 17 19  2  0  0  0  0
 17 62  1  0  0  0  0
 18 19  1  0  0  0  0
 18 63  1  0  0  0  0
 19 20  1  0  0  0  0
 20 64  1  0  0  0  0
 21 22  1  0  0  0  0
 21 65  1  0  0  0  0
 22 23  1  0  0  0  0
 22 25  1  0  0  0  0
 22 66  1  1  0  0  0
 23 24  2  0  0  0  0
 23 30  1  0  0  0  0
 25 26  1  0  0  0  0
 25 67  1  0  0  0  0
 25 68  1  0  0  0  0
 26 27  1  0  0  0  0
 26 69  1  0  0  0  0
 26 70  1  0  0  0  0
 27 28  2  0  0  0  0
 27 29  1  0  0  0  0
 29 71  1  0  0  0  0
 29 72  1  0  0  0  0
 30 31  1  0  0  0  0
 30 73  1  0  0  0  0
 31 32  1  0  0  0  0
 31 34  1  0  0  0  0
 31 74  1  6  0  0  0
 32 33  2  0  0  0  0
 32 41  1  0  0  0  0
 34 35  1  0  0  0  0
 34 75  1  0  0  0  0
 34 76  1  0  0  0  0
 35 36  1  0  0  0  0
 35 77  1  0  0  0  0
 35 78  1  0  0  0  0
 36 37  1  0  0  0  0
 36 79  1  0  0  0  0
 36 80  1  0  0  0  0
 37 38  1  0  0  0  0
 37 81  1  0  0  0  0
 38 39  1  0  0  0  0
 38 40  1  0  0  0  0
 39 82  1  0  0  0  0
 39 83  1  0  0  0  0
 40 84  1  0  0  0  0
 40 85  1  0  0  0  0
 41 42  1  0  0  0  0
 41 86  1  0  0  0  0
 42 43  1  0  0  0  0
 42 45  1  0  0  0  0
 42 87  1  1  0  0  0
 43 44  1  0  0  0  0
 43 49  2  0  0  0  0
 45 46  1  0  0  0  0
 45 88  1  0  0  0  0
 45 89  1  0  0  0  0
 46 47  1  0  0  0  0
 46 48  1  0  0  0  0
 46 90  1  0  0  0  0
 47 91  1  0  0  0  0
 47 92  1  0  0  0  0
 47 93  1  0  0  0  0
 48 94  1  0  0  0  0
 48 95  1  0  0  0  0
 48 96  1  0  0  0  0
M  CHG  3   1   1   7  -1  44  -1
M  END
