4ikr_ligand
 OpenBabel08222323353D

 44 46  0  0  0  0  0  0  0  0999 V2000
   -4.0660   -3.9660   17.1000 Cl  0  0  0  0  0  0  0  0  0  0  0  0
   -3.2660   -4.8360   15.7820 C   0  0  0  0  0  0  0  0  0  0  0  0
   -3.3480   -4.2860   14.5100 C   0  0  0  0  0  0  0  0  0  0  0  0
   -4.0260   -2.9840   14.1980 C   0  0  0  0  0  0  0  0  0  0  0  0
   -2.7230   -4.9040   13.5180 N   0  0  0  0  0  0  0  0  0  0  0  0
   -2.1090   -6.0910   13.7360 C   0  0  0  0  0  0  0  0  0  0  0  0
   -1.4400   -6.7680   12.6330 C   0  0  0  0  0  0  0  0  0  0  0  0
   -1.2040   -6.0520   11.5080 N   0  0  0  0  0  0  0  0  0  0  0  0
   -0.5470   -6.6410   10.4990 C   0  0  0  0  0  0  0  0  0  0  0  0
   -0.1680   -7.9840   10.5630 C   0  0  0  0  0  0  0  0  0  0  0  0
   -0.4340   -8.7260   11.6980 C   0  0  0  0  0  0  0  0  0  0  0  0
   -1.0550   -8.0960   12.7620 C   0  0  0  0  0  0  0  0  0  0  0  0
   -2.0310   -6.6440   14.9510 N   0  0  0  0  0  0  0  0  0  0  0  0
   -2.5990   -6.0480   15.9980 C   0  0  0  0  0  0  0  0  0  0  0  0
   -2.4010   -6.7210   17.2100 N   0  0  0  0  0  0  0  0  0  0  0  0
   -2.2600   -8.1750   17.1550 C   0  0  0  0  0  0  0  0  0  0  0  0
   -2.2240   -8.8540   18.5310 C   0  0  0  0  0  0  0  0  0  0  0  0
   -2.5600   -7.9670   19.6540 N   0  3  0  0  0  0  0  0  0  0  0  0
   -3.0640   -6.6110   19.4760 C   0  0  0  0  0  0  0  0  0  0  0  0
   -2.1610   -5.9550   18.4440 C   0  0  0  0  0  0  0  0  0  0  0  0
   -2.3870   -8.4500   21.0250 C   0  0  0  0  0  0  0  0  0  0  0  0
   -3.5300   -9.4290   21.2940 C   0  0  0  0  0  0  0  0  0  0  0  0
   -3.1500  -10.7780   20.9720 O   0  0  0  0  0  0  0  0  0  0  0  0
   -3.9482   -2.7792   13.1200 H   0  0  0  0  0  0  0  0  0  0  0  0
   -3.5403   -2.1735   14.7612 H   0  0  0  0  0  0  0  0  0  0  0  0
   -5.0864   -3.0450   14.4840 H   0  0  0  0  0  0  0  0  0  0  0  0
   -0.3046   -6.0629    9.6146 H   0  0  0  0  0  0  0  0  0  0  0  0
    0.3356   -8.4449    9.7209 H   0  0  0  0  0  0  0  0  0  0  0  0
   -0.1633   -9.7742   11.7534 H   0  0  0  0  0  0  0  0  0  0  0  0
   -1.2388   -8.6329   13.6856 H   0  0  0  0  0  0  0  0  0  0  0  0
   -1.3235   -8.4115   16.6286 H   0  0  0  0  0  0  0  0  0  0  0  0
   -3.1112   -8.5834   16.5905 H   0  0  0  0  0  0  0  0  0  0  0  0
   -1.2097   -9.2470   18.6945 H   0  0  0  0  0  0  0  0  0  0  0  0
   -2.9430   -9.6865   18.5230 H   0  0  0  0  0  0  0  0  0  0  0  0
   -3.5048   -8.3178   19.6372 H   0  0  0  0  0  0  0  0  0  0  0  0
   -3.0196   -6.0598   20.4269 H   0  0  0  0  0  0  0  0  0  0  0  0
   -4.1024   -6.6346   19.1140 H   0  0  0  0  0  0  0  0  0  0  0  0
   -2.4319   -4.8980   18.3052 H   0  0  0  0  0  0  0  0  0  0  0  0
   -1.1062   -6.0264   18.7479 H   0  0  0  0  0  0  0  0  0  0  0  0
   -2.4343   -7.6087   21.7321 H   0  0  0  0  0  0  0  0  0  0  0  0
   -1.4183   -8.9610   21.1274 H   0  0  0  0  0  0  0  0  0  0  0  0
   -4.3971   -9.1448   20.6797 H   0  0  0  0  0  0  0  0  0  0  0  0
   -3.8023   -9.3780   22.3585 H   0  0  0  0  0  0  0  0  0  0  0  0
   -3.8783  -11.3618   21.1490 H   0  0  0  0  0  0  0  0  0  0  0  0
  1  2  1  0  0  0  0
  2  3  2  0  0  0  0
  2 14  1  0  0  0  0
  3  4  1  0  0  0  0
  3  5  1  0  0  0  0
  4 24  1  0  0  0  0
  4 25  1  0  0  0  0
  4 26  1  0  0  0  0
  5  6  2  0  0  0  0
  6  7  1  0  0  0  0
  6 13  1  0  0  0  0
  7  8  2  0  0  0  0
  7 12  1  0  0  0  0
  8  9  1  0  0  0  0
  9 10  2  0  0  0  0
  9 27  1  0  0  0  0
 10 11  1  0  0  0  0
 10 28  1  0  0  0  0
 11 12  2  0  0  0  0
 11 29  1  0  0  0  0
 12 30  1  0  0  0  0
 13 14  2  0  0  0  0
 14 15  1  0  0  0  0
 15 16  1  0  0  0  0
 15 20  1  0  0  0  0
 16 17  1  0  0  0  0
 16 31  1  0  0  0  0
 16 32  1  0  0  0  0
 17 18  1  0  0  0  0
 17 33  1  0  0  0  0
 17 34  1  0  0  0  0
 18 19  1  0  0  0  0
 18 21  1  0  0  0  0
 18 35  1  0  0  0  0
 19 20  1  0  0  0  0
 19 36  1  0  0  0  0
 19 37  1  0  0  0  0
 20 38  1  0  0  0  0
 20 39  1  0  0  0  0
 21 22  1  0  0  0  0
 21 40  1  0  0  0  0
 21 41  1  0  0  0  0
 22 23  1  0  0  0  0
 22 42  1  0  0  0  0
 22 43  1  0  0  0  0
 23 44  1  0  0  0  0
M  CHG  1  18   1
M  END
