4iku_ligand
 OpenBabel08222323353D

 44 46  0  0  1  0  0  0  0  0999 V2000
   19.7080   -3.0930   16.8680 Cl  0  0  0  0  0  0  0  0  0  0  0  0
   20.3740   -4.2020   15.6480 C   0  0  0  0  0  0  0  0  0  0  0  0
   20.3920   -3.8150   14.3330 C   0  0  0  0  0  0  0  0  0  0  0  0
   19.8370   -2.4930   13.8860 C   0  0  0  0  0  0  0  0  0  0  0  0
   20.9280   -4.6610   13.4430 N   0  0  0  0  0  0  0  0  0  0  0  0
   21.4140   -5.8580   13.8310 C   0  0  0  0  0  0  0  0  0  0  0  0
   22.0770   -6.7050   12.8270 C   0  0  0  0  0  0  0  0  0  0  0  0
   22.4580   -8.0180   13.0820 C   0  0  0  0  0  0  0  0  0  0  0  0
   23.1440   -8.7190   12.0940 C   0  0  0  0  0  0  0  0  0  0  0  0
   23.4660   -8.0920   10.8900 C   0  0  0  0  0  0  0  0  0  0  0  0
   23.1000   -6.7610   10.7100 C   0  0  0  0  0  0  0  0  0  0  0  0
   22.4310   -6.0960   11.6640 N   0  0  0  0  0  0  0  0  0  0  0  0
   21.4180   -6.2440   15.1320 N   0  0  0  0  0  0  0  0  0  0  0  0
   20.8940   -5.4140   16.0470 C   0  0  0  0  0  0  0  0  0  0  0  0
   20.8490   -5.7630   17.3540 N   0  0  0  0  0  0  0  0  0  0  0  0
   21.1480   -7.1040   17.7980 C   0  0  1  0  0  0  0  0  0  0  0  0
   22.0380   -7.0150   19.0020 C   0  0  0  0  0  0  0  0  0  0  0  0
   22.0780   -5.8660   19.6730 N   0  0  0  0  0  0  0  0  0  0  0  0
   22.7070   -7.9830   19.3270 O   0  0  0  0  0  0  0  0  0  0  0  0
   19.8580   -7.8590   18.1320 C   0  0  0  0  0  0  0  0  0  0  0  0
   19.0130   -8.0220   16.8840 C   0  0  0  0  0  0  0  0  0  0  0  0
   17.9870   -7.1120   16.6020 C   0  0  0  0  0  0  0  0  0  0  0  0
   17.2220   -7.2630   15.4460 C   0  0  0  0  0  0  0  0  0  0  0  0
   17.4760   -8.3240   14.5740 C   0  0  0  0  0  0  0  0  0  0  0  0
   18.4950   -9.2300   14.8530 C   0  0  0  0  0  0  0  0  0  0  0  0
   19.2660   -9.0780   16.0040 C   0  0  0  0  0  0  0  0  0  0  0  0
   19.9566   -2.3945   12.7970 H   0  0  0  0  0  0  0  0  0  0  0  0
   20.3788   -1.6787   14.3894 H   0  0  0  0  0  0  0  0  0  0  0  0
   18.7692   -2.4374   14.1441 H   0  0  0  0  0  0  0  0  0  0  0  0
   22.2254   -8.4864   14.0315 H   0  0  0  0  0  0  0  0  0  0  0  0
   23.4279   -9.7519   12.2602 H   0  0  0  0  0  0  0  0  0  0  0  0
   23.9911   -8.6309   10.1097 H   0  0  0  0  0  0  0  0  0  0  0  0
   23.3590   -6.2552    9.7869 H   0  0  0  0  0  0  0  0  0  0  0  0
   20.5938   -5.0506   18.0528 H   0  0  0  0  0  0  0  0  0  0  0  0
   21.6758   -7.6421   16.9968 H   0  0  0  0  0  0  0  0  0  0  0  0
   22.6625   -5.7781   20.4796 H   0  0  0  0  0  0  0  0  0  0  0  0
   21.5235   -5.0907   19.3705 H   0  0  0  0  0  0  0  0  0  0  0  0
   19.2897   -7.2933   18.8850 H   0  0  0  0  0  0  0  0  0  0  0  0
   20.1106   -8.8518   18.5327 H   0  0  0  0  0  0  0  0  0  0  0  0
   17.7876   -6.2912   17.2814 H   0  0  0  0  0  0  0  0  0  0  0  0
   16.4301   -6.5568   15.2241 H   0  0  0  0  0  0  0  0  0  0  0  0
   16.8780   -8.4421   13.6776 H   0  0  0  0  0  0  0  0  0  0  0  0
   18.6889  -10.0535   14.1753 H   0  0  0  0  0  0  0  0  0  0  0  0
   20.0637   -9.7803   16.2172 H   0  0  0  0  0  0  0  0  0  0  0  0
  1  2  1  0  0  0  0
  2  3  2  0  0  0  0
  2 14  1  0  0  0  0
  3  4  1  0  0  0  0
  3  5  1  0  0  0  0
  4 27  1  0  0  0  0
  4 28  1  0  0  0  0
  4 29  1  0  0  0  0
  5  6  2  0  0  0  0
  6  7  1  0  0  0  0
  6 13  1  0  0  0  0
  7  8  2  0  0  0  0
  7 12  1  0  0  0  0
  8  9  1  0  0  0  0
  8 30  1  0  0  0  0
  9 10  2  0  0  0  0
  9 31  1  0  0  0  0
 10 11  1  0  0  0  0
 10 32  1  0  0  0  0
 11 12  2  0  0  0  0
 11 33  1  0  0  0  0
 13 14  2  0  0  0  0
 14 15  1  0  0  0  0
 15 16  1  0  0  0  0
 15 34  1  0  0  0  0
 16 17  1  0  0  0  0
 16 20  1  0  0  0  0
 16 35  1  6  0  0  0
 17 18  1  0  0  0  0
 17 19  2  0  0  0  0
 18 36  1  0  0  0  0
 18 37  1  0  0  0  0
 20 21  1  0  0  0  0
 20 38  1  0  0  0  0
 20 39  1  0  0  0  0
 21 22  2  0  0  0  0
 21 26  1  0  0  0  0
 22 23  1  0  0  0  0
 22 40  1  0  0  0  0
 23 24  2  0  0  0  0
 23 41  1  0  0  0  0
 24 25  1  0  0  0  0
 24 42  1  0  0  0  0
 25 26  2  0  0  0  0
 25 43  1  0  0  0  0
 26 44  1  0  0  0  0
M  END
