4imq_ligand
 OpenBabel08222323353D

 74 75  0  0  1  0  0  0  0  0999 V2000
  -34.8730  -38.4550   18.3140 C   0  0  0  0  0  0  0  0  0  0  0  0
  -35.3700  -39.5650   18.4620 O   0  0  0  0  0  0  0  0  0  0  0  0
  -33.7160  -38.3070   19.0280 O   0  0  0  0  0  0  0  0  0  0  0  0
  -33.3660  -37.0150   19.3930 C   0  0  0  0  0  0  0  0  0  0  0  0
  -34.0390  -36.8550   20.6140 C   0  0  0  0  0  0  0  0  0  0  0  0
  -34.9380  -37.8570   20.9370 C   0  0  0  0  0  0  0  0  0  0  0  0
  -35.6430  -37.8550   22.1280 C   0  0  0  0  0  0  0  0  0  0  0  0
  -35.4320  -36.8470   23.0540 C   0  0  0  0  0  0  0  0  0  0  0  0
  -34.5120  -35.8510   22.7660 C   0  0  0  0  0  0  0  0  0  0  0  0
  -33.8100  -35.8700   21.5660 C   0  0  0  0  0  0  0  0  0  0  0  0
  -35.6570  -37.4480   17.9150 N   0  0  0  0  0  0  0  0  0  0  0  0
  -36.9150  -37.6760   17.1300 C   0  0  2  0  0  0  0  0  0  0  0  0
  -36.8990  -37.4240   15.5890 C   0  0  0  0  0  0  0  0  0  0  0  0
  -36.5260  -36.3390   15.1150 O   0  0  0  0  0  0  0  0  0  0  0  0
  -38.0140  -36.6960   17.5910 C   0  0  0  0  0  0  0  0  0  0  0  0
  -38.3370  -36.7270   19.0950 C   0  0  0  0  0  0  0  0  0  0  0  0
  -39.4180  -35.6940   19.4550 C   0  0  0  0  0  0  0  0  0  0  0  0
  -38.8600  -38.1000   19.4810 C   0  0  0  0  0  0  0  0  0  0  0  0
  -37.5150  -38.3570   14.8380 N   0  0  0  0  0  0  0  0  0  0  0  0
  -37.5390  -38.1830   13.3530 C   0  0  2  0  0  0  0  0  0  0  0  0
  -38.4900  -36.9970   13.0120 C   0  0  0  0  0  0  0  0  0  0  0  0
  -39.5640  -36.7200   13.5650 O   0  0  0  0  0  0  0  0  0  0  0  0
  -37.9520  -39.4140   12.5070 C   0  0  0  0  0  0  0  0  0  0  0  0
  -37.0860  -40.6770   12.6870 C   0  0  0  0  0  0  0  0  0  0  0  0
  -35.8340  -40.7850   12.0830 C   0  0  0  0  0  0  0  0  0  0  0  0
  -37.5750  -41.7410   13.4360 C   0  0  0  0  0  0  0  0  0  0  0  0
  -35.0720  -41.9390   12.2460 C   0  0  0  0  0  0  0  0  0  0  0  0
  -36.8150  -42.8930   13.6000 C   0  0  0  0  0  0  0  0  0  0  0  0
  -35.5650  -42.9940   13.0050 C   0  0  0  0  0  0  0  0  0  0  0  0
  -39.1580  -35.3250   10.1080 C   0  0  0  0  0  0  0  0  0  0  0  0
  -37.0550  -32.3850   13.6200 C   0  0  0  0  0  0  0  0  0  0  0  0
  -37.9460  -36.2620   12.0960 N   0  0  0  0  0  0  0  0  0  0  0  0
  -36.2530  -31.7790   12.9330 O   0  0  0  0  0  0  0  0  0  0  0  0
  -38.5640  -35.0800   11.5480 C   0  0  1  0  0  0  0  0  0  0  0  0
  -37.5500  -33.9070   11.7940 C   0  0  0  0  0  0  0  0  0  0  0  0
  -37.1640  -32.0290   15.1210 C   0  0  0  0  0  0  0  0  0  0  0  0
  -37.6300  -33.5190   13.2090 N   0  0  0  0  0  0  0  0  0  0  0  0
  -40.2610  -35.8270    9.8420 O   0  0  0  0  0  0  0  0  0  0  0  0
  -33.7127  -36.2832   18.6485 H   0  0  0  0  0  0  0  0  0  0  0  0
  -32.2779  -36.9188   19.5226 H   0  0  0  0  0  0  0  0  0  0  0  0
  -35.0946  -38.6683   20.2353 H   0  0  0  0  0  0  0  0  0  0  0  0
  -36.3595  -38.6415   22.3358 H   0  0  0  0  0  0  0  0  0  0  0  0
  -35.9783  -36.8371   23.9902 H   0  0  0  0  0  0  0  0  0  0  0  0
  -34.3390  -35.0536   23.4796 H   0  0  0  0  0  0  0  0  0  0  0  0
  -33.0705  -35.1021   21.3699 H   0  0  0  0  0  0  0  0  0  0  0  0
  -35.3960  -36.5111   18.1477 H   0  0  0  0  0  0  0  0  0  0  0  0
  -37.2248  -38.7155   17.3129 H   0  0  0  0  0  0  0  0  0  0  0  0
  -38.9357  -36.9365   17.0409 H   0  0  0  0  0  0  0  0  0  0  0  0
  -37.6893  -35.6768   17.3346 H   0  0  0  0  0  0  0  0  0  0  0  0
  -37.4202  -36.5078   19.6619 H   0  0  0  0  0  0  0  0  0  0  0  0
  -39.6255  -35.7414   20.5342 H   0  0  0  0  0  0  0  0  0  0  0  0
  -40.3382  -35.9158   18.8946 H   0  0  0  0  0  0  0  0  0  0  0  0
  -39.0635  -34.6860   19.1938 H   0  0  0  0  0  0  0  0  0  0  0  0
  -38.1060  -38.8621   19.2346 H   0  0  0  0  0  0  0  0  0  0  0  0
  -39.7869  -38.3085   18.9265 H   0  0  0  0  0  0  0  0  0  0  0  0
  -39.0657  -38.1236   20.5613 H   0  0  0  0  0  0  0  0  0  0  0  0
  -37.9480  -39.1508   15.2652 H   0  0  0  0  0  0  0  0  0  0  0  0
  -36.5179  -37.9130   13.0456 H   0  0  0  0  0  0  0  0  0  0  0  0
  -37.9086  -39.1241   11.4468 H   0  0  0  0  0  0  0  0  0  0  0  0
  -38.9869  -39.6743   12.7739 H   0  0  0  0  0  0  0  0  0  0  0  0
  -35.4519  -39.9666   11.4836 H   0  0  0  0  0  0  0  0  0  0  0  0
  -38.5547  -41.6718   13.8948 H   0  0  0  0  0  0  0  0  0  0  0  0
  -34.0955  -42.0145   11.7815 H   0  0  0  0  0  0  0  0  0  0  0  0
  -37.1992  -43.7144   14.1939 H   0  0  0  0  0  0  0  0  0  0  0  0
  -34.9743  -43.8940   13.1320 H   0  0  0  0  0  0  0  0  0  0  0  0
  -38.5392  -35.0240    9.2639 H   0  0  0  0  0  0  0  0  0  0  0  0
  -37.0469  -36.5287   11.7489 H   0  0  0  0  0  0  0  0  0  0  0  0
  -39.4405  -34.8508   12.1719 H   0  0  0  0  0  0  0  0  0  0  0  0
  -37.8118  -33.0490   11.1574 H   0  0  0  0  0  0  0  0  0  0  0  0
  -36.5293  -34.2415   11.5570 H   0  0  0  0  0  0  0  0  0  0  0  0
  -37.9284  -32.6633   15.5937 H   0  0  0  0  0  0  0  0  0  0  0  0
  -37.4480  -30.9716   15.2274 H   0  0  0  0  0  0  0  0  0  0  0  0
  -36.1932  -32.1989   15.6096 H   0  0  0  0  0  0  0  0  0  0  0  0
  -38.1132  -34.1018   13.8623 H   0  0  0  0  0  0  0  0  0  0  0  0
  1  2  2  0  0  0  0
  1  3  1  0  0  0  0
  3  4  1  0  0  0  0
  4  5  1  0  0  0  0
  4 39  1  0  0  0  0
  4 40  1  0  0  0  0
  5  6  2  0  0  0  0
  5 10  1  0  0  0  0
  6  7  1  0  0  0  0
  6 41  1  0  0  0  0
  7  8  2  0  0  0  0
  7 42  1  0  0  0  0
  8 43  1  0  0  0  0
  9  8  1  0  0  0  0
  9 44  1  0  0  0  0
 10  9  2  0  0  0  0
 10 45  1  0  0  0  0
 11  1  1  0  0  0  0
 11 46  1  0  0  0  0
 12 11  1  0  0  0  0
 12 15  1  0  0  0  0
 12 47  1  1  0  0  0
 13 12  1  0  0  0  0
 13 14  2  0  0  0  0
 15 16  1  0  0  0  0
 15 48  1  0  0  0  0
 15 49  1  0  0  0  0
 16 17  1  0  0  0  0
 16 18  1  0  0  0  0
 16 50  1  0  0  0  0
 17 51  1  0  0  0  0
 17 52  1  0  0  0  0
 17 53  1  0  0  0  0
 18 54  1  0  0  0  0
 18 55  1  0  0  0  0
 18 56  1  0  0  0  0
 19 13  1  0  0  0  0
 19 57  1  0  0  0  0
 20 19  1  0  0  0  0
 20 23  1  0  0  0  0
 20 58  1  6  0  0  0
 21 20  1  0  0  0  0
 21 22  2  0  0  0  0
 23 24  1  0  0  0  0
 23 59  1  0  0  0  0
 23 60  1  0  0  0  0
 24 25  2  0  0  0  0
 24 26  1  0  0  0  0
 25 27  1  0  0  0  0
 25 61  1  0  0  0  0
 26 28  2  0  0  0  0
 26 62  1  0  0  0  0
 27 29  2  0  0  0  0
 27 63  1  0  0  0  0
 28 29  1  0  0  0  0
 28 64  1  0  0  0  0
 29 65  1  0  0  0  0
 30 38  2  0  0  0  0
 30 66  1  0  0  0  0
 31 33  2  0  0  0  0
 31 36  1  0  0  0  0
 32 21  1  0  0  0  0
 32 67  1  0  0  0  0
 34 30  1  0  0  0  0
 34 32  1  0  0  0  0
 34 68  1  1  0  0  0
 35 34  1  0  0  0  0
 35 37  1  0  0  0  0
 35 69  1  0  0  0  0
 35 70  1  0  0  0  0
 36 71  1  0  0  0  0
 36 72  1  0  0  0  0
 36 73  1  0  0  0  0
 37 31  1  0  0  0  0
 37 74  1  0  0  0  0
M  END
