4imz_ligand
 OpenBabel08222323353D

 80 81  0  0  1  0  0  0  0  0999 V2000
   35.2720   38.4570   18.0520 C   0  0  0  0  0  0  0  0  0  0  0  0
   35.6890   39.5720   18.2830 O   0  0  0  0  0  0  0  0  0  0  0  0
   34.1070   38.0750   18.4750 O   0  0  0  0  0  0  0  0  0  0  0  0
   33.2080   39.0800   18.2820 C   0  0  0  0  0  0  0  0  0  0  0  0
   31.8530   38.8130   18.2840 C   0  0  0  0  0  0  0  0  0  0  0  0
   31.3790   37.6800   17.7210 C   0  0  0  0  0  0  0  0  0  0  0  0
   30.0660   37.3830   17.6890 C   0  0  0  0  0  0  0  0  0  0  0  0
   29.1730   38.2740   18.1860 C   0  0  0  0  0  0  0  0  0  0  0  0
   29.6350   39.4120   18.7610 C   0  0  0  0  0  0  0  0  0  0  0  0
   30.9520   39.7030   18.8030 C   0  0  0  0  0  0  0  0  0  0  0  0
   35.9420   37.5690   17.4130 N   0  0  0  0  0  0  0  0  0  0  0  0
   37.2390   37.8640   16.9080 C   0  0  2  0  0  0  0  0  0  0  0  0
   37.1770   37.5950   15.4100 C   0  0  0  0  0  0  0  0  0  0  0  0
   36.5700   36.6270   14.9750 O   0  0  0  0  0  0  0  0  0  0  0  0
   38.2680   36.9350   17.4980 C   0  0  0  0  0  0  0  0  0  0  0  0
   38.2960   36.9350   19.0160 C   0  0  0  0  0  0  0  0  0  0  0  0
   38.9380   35.6540   19.4520 C   0  0  0  0  0  0  0  0  0  0  0  0
   39.1030   38.1100   19.4430 C   0  0  0  0  0  0  0  0  0  0  0  0
   37.8110   38.5020   14.6950 N   0  0  0  0  0  0  0  0  0  0  0  0
   37.8760   38.4130   13.2300 C   0  0  2  0  0  0  0  0  0  0  0  0
   38.5570   37.0990   12.8830 C   0  0  0  0  0  0  0  0  0  0  0  0
   39.5380   36.7360   13.4890 O   0  0  0  0  0  0  0  0  0  0  0  0
   38.6460   39.5930   12.6210 C   0  0  0  0  0  0  0  0  0  0  0  0
   37.7890   40.8930   12.5810 C   0  0  0  0  0  0  0  0  0  0  0  0
   38.1240   42.0320   13.3200 C   0  0  0  0  0  0  0  0  0  0  0  0
   36.6520   40.9670   11.8190 C   0  0  0  0  0  0  0  0  0  0  0  0
   37.3220   43.1680   13.2870 C   0  0  0  0  0  0  0  0  0  0  0  0
   35.8740   42.0970   11.7730 C   0  0  0  0  0  0  0  0  0  0  0  0
   36.2070   43.2270   12.5130 C   0  0  0  0  0  0  0  0  0  0  0  0
   39.1160   35.2080   10.0550 C   0  0  0  0  0  0  0  0  0  0  0  0
   37.0360   32.4780   13.8150 C   0  0  0  0  0  0  0  0  0  0  0  0
   37.5440   33.8500   13.3520 C   0  0  0  0  0  0  0  0  0  0  0  0
   38.0260   36.4390   11.8760 N   0  0  0  0  0  0  0  0  0  0  0  0
   36.3720   31.7930   13.0870 O   0  0  0  0  0  0  0  0  0  0  0  0
   37.3300   32.1100   15.0510 N   0  0  0  0  0  0  0  0  0  0  0  0
   38.0600   32.9910   15.9550 C   0  0  0  0  0  0  0  0  0  0  0  0
   36.8580   30.8290   15.4770 C   0  0  0  0  0  0  0  0  0  0  0  0
   38.5880   35.1670   11.5130 C   0  0  1  0  0  0  0  0  0  0  0  0
   37.5570   34.0790   11.8670 C   0  0  0  0  0  0  0  0  0  0  0  0
   39.9130   36.0150    9.6040 O   0  0  0  0  0  0  0  0  0  0  0  0
   33.4403   39.5285   17.3048 H   0  0  0  0  0  0  0  0  0  0  0  0
   33.3855   39.8197   19.0765 H   0  0  0  0  0  0  0  0  0  0  0  0
   32.0822   36.9838   17.2784 H   0  0  0  0  0  0  0  0  0  0  0  0
   29.7268   36.4423   17.2706 H   0  0  0  0  0  0  0  0  0  0  0  0
   28.1082   38.0801   18.1248 H   0  0  0  0  0  0  0  0  0  0  0  0
   28.9272   40.1066   19.1987 H   0  0  0  0  0  0  0  0  0  0  0  0
   31.2931   40.6328   19.2436 H   0  0  0  0  0  0  0  0  0  0  0  0
   35.5490   36.6609   17.2685 H   0  0  0  0  0  0  0  0  0  0  0  0
   37.5068   38.9106   17.1149 H   0  0  0  0  0  0  0  0  0  0  0  0
   39.2599   37.2397   17.1330 H   0  0  0  0  0  0  0  0  0  0  0  0
   38.0493   35.9129   17.1554 H   0  0  0  0  0  0  0  0  0  0  0  0
   37.2780   37.0062   19.4265 H   0  0  0  0  0  0  0  0  0  0  0  0
   38.9759   35.6183   20.5508 H   0  0  0  0  0  0  0  0  0  0  0  0
   39.9596   35.5998   19.0479 H   0  0  0  0  0  0  0  0  0  0  0  0
   38.3499   34.8031   19.0776 H   0  0  0  0  0  0  0  0  0  0  0  0
   38.6089   39.0347   19.1101 H   0  0  0  0  0  0  0  0  0  0  0  0
   40.1058   38.0485   18.9951 H   0  0  0  0  0  0  0  0  0  0  0  0
   39.1909   38.1156   20.5395 H   0  0  0  0  0  0  0  0  0  0  0  0
   38.2573   39.2670   15.1592 H   0  0  0  0  0  0  0  0  0  0  0  0
   36.8542   38.4142   12.8227 H   0  0  0  0  0  0  0  0  0  0  0  0
   38.9420   39.3315   11.5944 H   0  0  0  0  0  0  0  0  0  0  0  0
   39.5456   39.7796   13.2258 H   0  0  0  0  0  0  0  0  0  0  0  0
   39.0218   42.0296   13.9274 H   0  0  0  0  0  0  0  0  0  0  0  0
   36.3573   40.1040   11.2329 H   0  0  0  0  0  0  0  0  0  0  0  0
   37.5927   44.0255   13.8924 H   0  0  0  0  0  0  0  0  0  0  0  0
   34.9866   42.1090   11.1506 H   0  0  0  0  0  0  0  0  0  0  0  0
   35.5982   44.1231   12.4734 H   0  0  0  0  0  0  0  0  0  0  0  0
   38.7415   34.4474    9.3715 H   0  0  0  0  0  0  0  0  0  0  0  0
   38.5735   33.9699   13.7203 H   0  0  0  0  0  0  0  0  0  0  0  0
   36.9005   34.6182   13.8056 H   0  0  0  0  0  0  0  0  0  0  0  0
   37.2473   36.8148   11.3736 H   0  0  0  0  0  0  0  0  0  0  0  0
   38.1957   32.4901   16.9249 H   0  0  0  0  0  0  0  0  0  0  0  0
   37.4911   33.9213   16.0992 H   0  0  0  0  0  0  0  0  0  0  0  0
   39.0439   33.2261   15.5229 H   0  0  0  0  0  0  0  0  0  0  0  0
   36.3377   30.3342   14.6436 H   0  0  0  0  0  0  0  0  0  0  0  0
   36.1625   30.9561   16.3196 H   0  0  0  0  0  0  0  0  0  0  0  0
   37.7107   30.2113   15.7953 H   0  0  0  0  0  0  0  0  0  0  0  0
   39.4659   34.9874   12.1509 H   0  0  0  0  0  0  0  0  0  0  0  0
   36.5581   34.4027   11.5392 H   0  0  0  0  0  0  0  0  0  0  0  0
   37.8251   33.1426   11.3559 H   0  0  0  0  0  0  0  0  0  0  0  0
  1  2  2  0  0  0  0
  1  3  1  0  0  0  0
  3  4  1  0  0  0  0
  4  5  1  0  0  0  0
  4 41  1  0  0  0  0
  4 42  1  0  0  0  0
  5  6  2  0  0  0  0
  5 10  1  0  0  0  0
  6  7  1  0  0  0  0
  6 43  1  0  0  0  0
  7  8  2  0  0  0  0
  7 44  1  0  0  0  0
  8 45  1  0  0  0  0
  9  8  1  0  0  0  0
  9 46  1  0  0  0  0
 10  9  2  0  0  0  0
 10 47  1  0  0  0  0
 11  1  1  0  0  0  0
 11 48  1  0  0  0  0
 12 11  1  0  0  0  0
 12 15  1  0  0  0  0
 12 49  1  1  0  0  0
 13 12  1  0  0  0  0
 13 14  2  0  0  0  0
 15 16  1  0  0  0  0
 15 50  1  0  0  0  0
 15 51  1  0  0  0  0
 16 17  1  0  0  0  0
 16 18  1  0  0  0  0
 16 52  1  0  0  0  0
 17 53  1  0  0  0  0
 17 54  1  0  0  0  0
 17 55  1  0  0  0  0
 18 56  1  0  0  0  0
 18 57  1  0  0  0  0
 18 58  1  0  0  0  0
 19 13  1  0  0  0  0
 19 59  1  0  0  0  0
 20 19  1  0  0  0  0
 20 23  1  0  0  0  0
 20 60  1  6  0  0  0
 21 20  1  0  0  0  0
 21 22  2  0  0  0  0
 23 24  1  0  0  0  0
 23 61  1  0  0  0  0
 23 62  1  0  0  0  0
 24 25  2  0  0  0  0
 24 26  1  0  0  0  0
 25 27  1  0  0  0  0
 25 63  1  0  0  0  0
 26 28  2  0  0  0  0
 26 64  1  0  0  0  0
 27 29  2  0  0  0  0
 27 65  1  0  0  0  0
 28 29  1  0  0  0  0
 28 66  1  0  0  0  0
 29 67  1  0  0  0  0
 30 40  2  0  0  0  0
 30 68  1  0  0  0  0
 31 34  2  0  0  0  0
 31 35  1  0  0  0  0
 32 31  1  0  0  0  0
 32 69  1  0  0  0  0
 32 70  1  0  0  0  0
 33 21  1  0  0  0  0
 33 71  1  0  0  0  0
 35 36  1  0  0  0  0
 35 37  1  0  0  0  0
 36 72  1  0  0  0  0
 36 73  1  0  0  0  0
 36 74  1  0  0  0  0
 37 75  1  0  0  0  0
 37 76  1  0  0  0  0
 37 77  1  0  0  0  0
 38 30  1  0  0  0  0
 38 33  1  0  0  0  0
 38 39  1  0  0  0  0
 38 78  1  1  0  0  0
 39 32  1  0  0  0  0
 39 79  1  0  0  0  0
 39 80  1  0  0  0  0
M  END
