4int_ligand
 OpenBabel08222323353D

 81 82  0  0  1  0  0  0  0  0999 V2000
   55.3890 -134.4810   35.5050 C   0  0  0  0  0  0  0  0  0  0  0  0
   56.1640 -135.0260   36.5360 C   0  0  0  0  0  0  0  0  0  0  0  0
   57.4950 -135.3850   36.2940 C   0  0  0  0  0  0  0  0  0  0  0  0
   58.0700 -135.2070   35.0240 C   0  0  0  0  0  0  0  0  0  0  0  0
   57.2860 -134.6570   33.9860 C   0  0  0  0  0  0  0  0  0  0  0  0
   55.9440 -134.2950   34.2290 C   0  0  0  0  0  0  0  0  0  0  0  0
   57.8780 -134.4460   32.5800 C   0  0  0  0  0  0  0  0  0  0  0  0
   59.5170 -135.6010   34.7780 C   0  0  0  0  0  0  0  0  0  0  0  0
   55.1630 -133.7490   33.2010 O   0  0  0  0  0  0  0  0  0  0  0  0
   59.7460 -136.7770   34.5370 O   0  0  0  0  0  0  0  0  0  0  0  0
   60.5070 -134.6730   34.8200 N   0  0  0  0  0  0  0  0  0  0  0  0
   61.7410 -134.8860   35.5840 C   0  0  2  0  0  0  0  0  0  0  0  0
   61.4600 -135.1260   37.0620 C   0  0  0  0  0  0  0  0  0  0  0  0
   60.8260 -134.2800   37.6740 O   0  0  0  0  0  0  0  0  0  0  0  0
   62.7530 -133.7250   35.2990 C   0  0  0  0  0  0  0  0  0  0  0  0
   63.2800 -133.7740   33.8360 C   0  0  0  0  0  0  0  0  0  0  0  0
   63.9730 -133.7640   36.2630 C   0  0  0  0  0  0  0  0  0  0  0  0
   61.9280 -136.2770   37.6130 N   0  0  0  0  0  0  0  0  0  0  0  0
   61.8250 -136.6100   39.0430 C   0  0  2  0  0  0  0  0  0  0  0  0
   63.1220 -136.3390   39.8150 C   0  0  0  0  0  0  0  0  0  0  0  0
   64.1010 -136.9220   39.3660 O   0  0  0  0  0  0  0  0  0  0  0  0
   61.0070 -137.8550   39.4940 C   0  0  0  0  0  0  0  0  0  0  0  0
   59.7060 -137.4540   39.9710 O   0  0  0  0  0  0  0  0  0  0  0  0
   61.3800 -138.0560   45.1430 O   0  0  0  0  0  0  0  0  0  0  0  0
   61.7670 -138.6690   43.8890 S   0  0  0  0  0  0  0  0  0  0  0  0
   62.5640 -139.8790   43.9250 O   0  0  0  0  0  0  0  0  0  0  0  0
   60.2520 -139.0900   43.0050 C   0  0  0  0  0  0  0  0  0  0  0  0
   62.6070 -137.4580   42.8250 C   0  0  0  0  0  0  0  0  0  0  0  0
   64.0790 -136.9470   42.9990 C   0  0  0  0  0  0  0  0  0  0  0  0
   64.2340 -135.6990   42.0690 C   0  0  2  0  0  0  0  0  0  0  0  0
   64.3050 -134.3680   42.8760 C   0  0  0  0  0  0  0  0  0  0  0  0
   64.9530 -133.1800   42.1390 C   0  0  0  0  0  0  0  0  0  0  0  0
   65.7660 -133.3450   41.0030 C   0  0  0  0  0  0  0  0  0  0  0  0
   66.3360 -132.2320   40.3700 C   0  0  0  0  0  0  0  0  0  0  0  0
   66.1090 -130.9380   40.8640 C   0  0  0  0  0  0  0  0  0  0  0  0
   66.7510 -129.7410   40.1480 C   0  0  0  0  0  0  0  0  0  0  0  0
   65.7040 -128.9170   39.5090 N   0  3  0  0  0  0  0  0  0  0  0  0
   65.3020 -130.7680   42.0000 C   0  0  0  0  0  0  0  0  0  0  0  0
   64.7310 -131.8830   42.6300 C   0  0  0  0  0  0  0  0  0  0  0  0
   63.3330 -135.5460   40.9110 N   0  0  0  0  0  0  0  0  0  0  0  0
   54.3584 -134.2021   35.6925 H   0  0  0  0  0  0  0  0  0  0  0  0
   55.7336 -135.1697   37.5205 H   0  0  0  0  0  0  0  0  0  0  0  0
   58.0900 -135.8058   37.0965 H   0  0  0  0  0  0  0  0  0  0  0  0
   58.9260 -134.7799   32.5696 H   0  0  0  0  0  0  0  0  0  0  0  0
   57.8307 -133.3786   32.3186 H   0  0  0  0  0  0  0  0  0  0  0  0
   57.3002 -135.0289   31.8476 H   0  0  0  0  0  0  0  0  0  0  0  0
   54.2918 -133.5634   33.5312 H   0  0  0  0  0  0  0  0  0  0  0  0
   60.3915 -133.8179   34.3146 H   0  0  0  0  0  0  0  0  0  0  0  0
   62.2035 -135.8087   35.2036 H   0  0  0  0  0  0  0  0  0  0  0  0
   62.2231 -132.7726   35.4478 H   0  0  0  0  0  0  0  0  0  0  0  0
   63.9860 -132.9464   33.6727 H   0  0  0  0  0  0  0  0  0  0  0  0
   62.4349 -133.6780   33.1384 H   0  0  0  0  0  0  0  0  0  0  0  0
   63.7918 -134.7321   33.6625 H   0  0  0  0  0  0  0  0  0  0  0  0
   63.6190 -133.7301   37.3039 H   0  0  0  0  0  0  0  0  0  0  0  0
   64.6222 -132.8977   36.0681 H   0  0  0  0  0  0  0  0  0  0  0  0
   64.5406 -134.6918   36.0988 H   0  0  0  0  0  0  0  0  0  0  0  0
   62.3703 -136.9396   37.0085 H   0  0  0  0  0  0  0  0  0  0  0  0
   61.1736 -135.8002   39.4032 H   0  0  0  0  0  0  0  0  0  0  0  0
   61.5467 -138.3703   40.3022 H   0  0  0  0  0  0  0  0  0  0  0  0
   60.8857 -138.5381   38.6404 H   0  0  0  0  0  0  0  0  0  0  0  0
   59.8084 -136.8654   40.7098 H   0  0  0  0  0  0  0  0  0  0  0  0
   59.6034 -138.2035   42.9463 H   0  0  0  0  0  0  0  0  0  0  0  0
   59.7263 -139.8941   43.5407 H   0  0  0  0  0  0  0  0  0  0  0  0
   60.5024 -139.4290   41.9890 H   0  0  0  0  0  0  0  0  0  0  0  0
   61.9809 -136.5545   42.8654 H   0  0  0  0  0  0  0  0  0  0  0  0
   62.5677 -137.8865   41.8127 H   0  0  0  0  0  0  0  0  0  0  0  0
   64.7904 -137.7317   42.7021 H   0  0  0  0  0  0  0  0  0  0  0  0
   64.2609 -136.6643   44.0463 H   0  0  0  0  0  0  0  0  0  0  0  0
   65.2303 -135.8270   41.6208 H   0  0  0  0  0  0  0  0  0  0  0  0
   64.8857 -134.5568   43.7910 H   0  0  0  0  0  0  0  0  0  0  0  0
   63.2783 -134.0801   43.1461 H   0  0  0  0  0  0  0  0  0  0  0  0
   65.9529 -134.3396   40.6146 H   0  0  0  0  0  0  0  0  0  0  0  0
   66.9568 -132.3716   39.4924 H   0  0  0  0  0  0  0  0  0  0  0  0
   67.4474 -130.1065   39.3790 H   0  0  0  0  0  0  0  0  0  0  0  0
   67.3002 -129.1300   40.8795 H   0  0  0  0  0  0  0  0  0  0  0  0
   66.1320 -128.1335   39.0411 H   0  0  0  0  0  0  0  0  0  0  0  0
   65.0654 -128.5803   40.2125 H   0  0  0  0  0  0  0  0  0  0  0  0
   65.2004 -129.4751   38.8375 H   0  0  0  0  0  0  0  0  0  0  0  0
   65.1200 -129.7734   42.3907 H   0  0  0  0  0  0  0  0  0  0  0  0
   64.1102 -131.7421   43.5074 H   0  0  0  0  0  0  0  0  0  0  0  0
   62.7772 -134.7149   40.9299 H   0  0  0  0  0  0  0  0  0  0  0  0
  1 41  1  0  0  0  0
  2  1  2  0  0  0  0
  2 42  1  0  0  0  0
  3  2  1  0  0  0  0
  3 43  1  0  0  0  0
  4  3  2  0  0  0  0
  4  5  1  0  0  0  0
  5  6  2  0  0  0  0
  5  7  1  0  0  0  0
  6  1  1  0  0  0  0
  6  9  1  0  0  0  0
  7 44  1  0  0  0  0
  7 45  1  0  0  0  0
  7 46  1  0  0  0  0
  8  4  1  0  0  0  0
  8 10  2  0  0  0  0
  9 47  1  0  0  0  0
 11  8  1  0  0  0  0
 11 48  1  0  0  0  0
 12 11  1  0  0  0  0
 12 15  1  0  0  0  0
 12 49  1  6  0  0  0
 13 12  1  0  0  0  0
 13 14  2  0  0  0  0
 15 16  1  0  0  0  0
 15 17  1  0  0  0  0
 15 50  1  0  0  0  0
 16 51  1  0  0  0  0
 16 52  1  0  0  0  0
 16 53  1  0  0  0  0
 17 54  1  0  0  0  0
 17 55  1  0  0  0  0
 17 56  1  0  0  0  0
 18 13  1  0  0  0  0
 18 57  1  0  0  0  0
 19 18  1  0  0  0  0
 19 22  1  0  0  0  0
 19 58  1  1  0  0  0
 20 19  1  0  0  0  0
 20 21  2  0  0  0  0
 22 23  1  0  0  0  0
 22 59  1  0  0  0  0
 22 60  1  0  0  0  0
 23 61  1  0  0  0  0
 25 24  2  0  0  0  0
 25 26  2  0  0  0  0
 25 27  1  0  0  0  0
 27 62  1  0  0  0  0
 27 63  1  0  0  0  0
 27 64  1  0  0  0  0
 28 25  1  0  0  0  0
 28 65  1  0  0  0  0
 28 66  1  0  0  0  0
 29 28  1  0  0  0  0
 29 67  1  0  0  0  0
 29 68  1  0  0  0  0
 30 29  1  0  0  0  0
 30 31  1  0  0  0  0
 30 40  1  0  0  0  0
 30 69  1  6  0  0  0
 31 32  1  0  0  0  0
 31 70  1  0  0  0  0
 31 71  1  0  0  0  0
 32 33  2  0  0  0  0
 32 39  1  0  0  0  0
 33 34  1  0  0  0  0
 33 72  1  0  0  0  0
 34 35  2  0  0  0  0
 34 73  1  0  0  0  0
 35 36  1  0  0  0  0
 35 38  1  0  0  0  0
 36 37  1  0  0  0  0
 36 74  1  0  0  0  0
 36 75  1  0  0  0  0
 37 76  1  0  0  0  0
 37 77  1  0  0  0  0
 37 78  1  0  0  0  0
 38 39  2  0  0  0  0
 38 79  1  0  0  0  0
 39 80  1  0  0  0  0
 40 20  1  0  0  0  0
 40 81  1  0  0  0  0
M  CHG  1  37   1
M  END
