4inu_ligand
 OpenBabel08222323353D

103105  0  0  1  0  0  0  0  0999 V2000
   60.0980 -135.0950   34.5270 C   0  0  0  0  0  0  0  0  0  0  0  0
   60.1650 -136.2410   34.9480 O   0  0  0  0  0  0  0  0  0  0  0  0
   58.7790 -134.6190   33.9550 C   0  0  1  0  0  0  0  0  0  0  0  0
   58.6200 -135.3600   32.7230 N   0  0  0  0  0  0  0  0  0  0  0  0
   58.8760 -134.8250   31.6690 N   0  0  0  0  0  0  0  0  0  0  0  0
   59.1050 -134.3560   30.6340 N   0  0  0  0  0  0  0  0  0  0  0  0
   57.5480 -134.8210   34.8910 C   0  0  0  0  0  0  0  0  0  0  0  0
   56.2490 -134.2880   34.2590 C   0  0  0  0  0  0  0  0  0  0  0  0
   55.4470 -135.1000   33.4330 C   0  0  0  0  0  0  0  0  0  0  0  0
   54.2680 -134.6050   32.8600 C   0  0  0  0  0  0  0  0  0  0  0  0
   55.8400 -132.9670   34.5010 C   0  0  0  0  0  0  0  0  0  0  0  0
   54.6620 -132.4690   33.9310 C   0  0  0  0  0  0  0  0  0  0  0  0
   53.8730 -133.2860   33.1110 C   0  0  0  0  0  0  0  0  0  0  0  0
   61.3790 -134.3730   37.0470 C   0  0  0  0  0  0  0  0  0  0  0  0
   60.4810 -133.7680   37.6170 O   0  0  0  0  0  0  0  0  0  0  0  0
   61.8020 -133.7220   35.7360 C   0  0  1  0  0  0  0  0  0  0  0  0
   63.3550 -133.6900   35.5520 C   0  0  0  0  0  0  0  0  0  0  0  0
   63.9070 -133.3130   34.1670 C   0  0  0  0  0  0  0  0  0  0  0  0
   64.4420 -132.0370   33.9290 C   0  0  0  0  0  0  0  0  0  0  0  0
   64.9510 -131.7030   32.6640 C   0  0  0  0  0  0  0  0  0  0  0  0
   64.9340 -132.6470   31.6270 C   0  0  0  0  0  0  0  0  0  0  0  0
   65.4950 -132.2690   30.2510 C   0  0  0  0  0  0  0  0  0  0  0  0
   66.9460 -132.5350   30.1990 N   0  3  0  0  0  0  0  0  0  0  0  0
   64.4050 -133.9240   31.8610 C   0  0  0  0  0  0  0  0  0  0  0  0
   63.8990 -134.2550   33.1240 C   0  0  0  0  0  0  0  0  0  0  0  0
   61.1560 -134.2460   34.5290 N   0  0  0  0  0  0  0  0  0  0  0  0
   61.8500 -135.5100   37.6400 N   0  0  0  0  0  0  0  0  0  0  0  0
   61.6580 -135.9260   39.0350 C   0  0  2  0  0  0  0  0  0  0  0  0
   62.9610 -135.7830   39.8220 C   0  0  0  0  0  0  0  0  0  0  0  0
   63.9930 -136.1920   39.3070 O   0  0  0  0  0  0  0  0  0  0  0  0
   61.0670 -137.3690   39.0520 C   0  0  0  0  0  0  0  0  0  0  0  0
   59.5680 -137.5890   38.6530 C   0  0  0  0  0  0  0  0  0  0  0  0
   58.5470 -137.3880   39.8080 C   0  0  0  0  0  0  0  0  0  0  0  0
   59.3080 -138.9510   37.9660 C   0  0  0  0  0  0  0  0  0  0  0  0
   62.3280 -139.5080   44.2380 O   0  0  0  0  0  0  0  0  0  0  0  0
   61.5940 -138.4060   43.6510 S   0  0  0  0  0  0  0  0  0  0  0  0
   61.1080 -137.3430   44.5110 O   0  0  0  0  0  0  0  0  0  0  0  0
   60.1910 -139.0970   42.7540 C   0  0  0  0  0  0  0  0  0  0  0  0
   62.5900 -137.6810   42.3230 C   0  0  0  0  0  0  0  0  0  0  0  0
   63.7760 -136.7820   42.8080 C   0  0  0  0  0  0  0  0  0  0  0  0
   63.9560 -135.3850   42.1110 C   0  0  2  0  0  0  0  0  0  0  0  0
   64.1220 -134.1400   43.0440 C   0  0  0  0  0  0  0  0  0  0  0  0
   64.6650 -132.8400   42.4090 C   0  0  0  0  0  0  0  0  0  0  0  0
   64.3260 -131.5730   42.9150 C   0  0  0  0  0  0  0  0  0  0  0  0
   64.8320 -130.4050   42.3220 C   0  0  0  0  0  0  0  0  0  0  0  0
   65.6860 -130.4740   41.2090 C   0  0  0  0  0  0  0  0  0  0  0  0
   66.2540 -129.2090   40.5430 C   0  0  0  0  0  0  0  0  0  0  0  0
   65.3040 -128.5490   39.6230 N   0  3  0  0  0  0  0  0  0  0  0  0
   66.0280 -131.7350   40.7000 C   0  0  0  0  0  0  0  0  0  0  0  0
   65.5220 -132.9000   41.2940 C   0  0  0  0  0  0  0  0  0  0  0  0
   62.9260 -135.2100   41.0610 N   0  0  0  0  0  0  0  0  0  0  0  0
   58.8558 -133.5445   33.7324 H   0  0  0  0  0  0  0  0  0  0  0  0
   57.7286 -134.2868   35.8355 H   0  0  0  0  0  0  0  0  0  0  0  0
   57.4290 -135.8955   35.0944 H   0  0  0  0  0  0  0  0  0  0  0  0
   55.7466 -136.1233   33.2378 H   0  0  0  0  0  0  0  0  0  0  0  0
   53.6636 -135.2418   32.2242 H   0  0  0  0  0  0  0  0  0  0  0  0
   56.4420 -132.3264   35.1353 H   0  0  0  0  0  0  0  0  0  0  0  0
   54.3591 -131.4464   34.1252 H   0  0  0  0  0  0  0  0  0  0  0  0
   52.9605 -132.8983   32.6728 H   0  0  0  0  0  0  0  0  0  0  0  0
   61.4787 -132.6736   35.8156 H   0  0  0  0  0  0  0  0  0  0  0  0
   63.7345 -134.6937   35.7939 H   0  0  0  0  0  0  0  0  0  0  0  0
   63.7556 -132.9628   36.2735 H   0  0  0  0  0  0  0  0  0  0  0  0
   64.4622 -131.3044   34.7277 H   0  0  0  0  0  0  0  0  0  0  0  0
   65.3579 -130.7137   32.4885 H   0  0  0  0  0  0  0  0  0  0  0  0
   65.3153 -131.1995   30.0671 H   0  0  0  0  0  0  0  0  0  0  0  0
   64.9890 -132.8643   29.4767 H   0  0  0  0  0  0  0  0  0  0  0  0
   67.3015 -132.2824   29.2902 H   0  0  0  0  0  0  0  0  0  0  0  0
   67.1142 -133.5149   30.3651 H   0  0  0  0  0  0  0  0  0  0  0  0
   67.4132 -131.9893   30.9061 H   0  0  0  0  0  0  0  0  0  0  0  0
   64.3876 -134.6568   31.0624 H   0  0  0  0  0  0  0  0  0  0  0  0
   63.4975 -135.2466   33.2988 H   0  0  0  0  0  0  0  0  0  0  0  0
   61.5212 -133.9570   33.6441 H   0  0  0  0  0  0  0  0  0  0  0  0
   62.3838 -136.1262   37.0608 H   0  0  0  0  0  0  0  0  0  0  0  0
   60.9189 -135.2559   39.4983 H   0  0  0  0  0  0  0  0  0  0  0  0
   61.1859 -137.7523   40.0762 H   0  0  0  0  0  0  0  0  0  0  0  0
   61.6745 -137.9726   38.3617 H   0  0  0  0  0  0  0  0  0  0  0  0
   59.3453 -136.8130   37.9059 H   0  0  0  0  0  0  0  0  0  0  0  0
   57.5284 -137.5634   39.4316 H   0  0  0  0  0  0  0  0  0  0  0  0
   58.6243 -136.3597   40.1910 H   0  0  0  0  0  0  0  0  0  0  0  0
   58.7657 -138.0987   40.6186 H   0  0  0  0  0  0  0  0  0  0  0  0
   60.0304 -139.0932   37.1488 H   0  0  0  0  0  0  0  0  0  0  0  0
   58.2862 -138.9673   37.5591 H   0  0  0  0  0  0  0  0  0  0  0  0
   59.4227 -139.7606   38.7017 H   0  0  0  0  0  0  0  0  0  0  0  0
   60.5395 -139.9061   42.0952 H   0  0  0  0  0  0  0  0  0  0  0  0
   59.7187 -138.3092   42.1488 H   0  0  0  0  0  0  0  0  0  0  0  0
   59.4588 -139.4974   43.4706 H   0  0  0  0  0  0  0  0  0  0  0  0
   61.9283 -137.0655   41.6960 H   0  0  0  0  0  0  0  0  0  0  0  0
   63.0068 -138.5017   41.7208 H   0  0  0  0  0  0  0  0  0  0  0  0
   64.7053 -137.3500   42.6536 H   0  0  0  0  0  0  0  0  0  0  0  0
   63.6328 -136.5984   43.8831 H   0  0  0  0  0  0  0  0  0  0  0  0
   64.9155 -135.4541   41.5776 H   0  0  0  0  0  0  0  0  0  0  0  0
   64.8109 -134.4241   43.8532 H   0  0  0  0  0  0  0  0  0  0  0  0
   63.1329 -133.9115   43.4677 H   0  0  0  0  0  0  0  0  0  0  0  0
   63.6669 -131.4968   43.7722 H   0  0  0  0  0  0  0  0  0  0  0  0
   64.5600 -129.4376   42.7285 H   0  0  0  0  0  0  0  0  0  0  0  0
   67.1524 -129.4890   39.9734 H   0  0  0  0  0  0  0  0  0  0  0  0
   66.5283 -128.4934   41.3321 H   0  0  0  0  0  0  0  0  0  0  0  0
   65.7369 -127.7314   39.2228 H   0  0  0  0  0  0  0  0  0  0  0  0
   64.4777 -128.2765   40.1319 H   0  0  0  0  0  0  0  0  0  0  0  0
   65.0496 -129.1888   38.8869 H   0  0  0  0  0  0  0  0  0  0  0  0
   66.6871 -131.8096   39.8427 H   0  0  0  0  0  0  0  0  0  0  0  0
   65.7963 -133.8662   40.8863 H   0  0  0  0  0  0  0  0  0  0  0  0
   62.1432 -134.6262   41.2765 H   0  0  0  0  0  0  0  0  0  0  0  0
  1  2  2  0  0  0  0
  1  3  1  0  0  0  0
  3  4  1  0  0  0  0
  3  7  1  0  0  0  0
  3 52  1  6  0  0  0
  4  5  2  0  0  0  0
  5  6  3  0  0  0  0
  7  8  1  0  0  0  0
  7 53  1  0  0  0  0
  7 54  1  0  0  0  0
  8  9  2  0  0  0  0
  8 11  1  0  0  0  0
  9 10  1  0  0  0  0
  9 55  1  0  0  0  0
 10 13  2  0  0  0  0
 10 56  1  0  0  0  0
 11 12  2  0  0  0  0
 11 57  1  0  0  0  0
 12 13  1  0  0  0  0
 12 58  1  0  0  0  0
 13 59  1  0  0  0  0
 14 15  2  0  0  0  0
 14 16  1  0  0  0  0
 16 17  1  0  0  0  0
 16 26  1  0  0  0  0
 16 60  1  1  0  0  0
 17 18  1  0  0  0  0
 17 61  1  0  0  0  0
 17 62  1  0  0  0  0
 18 19  2  0  0  0  0
 18 25  1  0  0  0  0
 19 20  1  0  0  0  0
 19 63  1  0  0  0  0
 20 21  2  0  0  0  0
 20 64  1  0  0  0  0
 21 22  1  0  0  0  0
 22 23  1  0  0  0  0
 22 65  1  0  0  0  0
 22 66  1  0  0  0  0
 23 67  1  0  0  0  0
 23 68  1  0  0  0  0
 23 69  1  0  0  0  0
 24 21  1  0  0  0  0
 24 70  1  0  0  0  0
 25 24  2  0  0  0  0
 25 71  1  0  0  0  0
 26  1  1  0  0  0  0
 26 72  1  0  0  0  0
 27 14  1  0  0  0  0
 27 73  1  0  0  0  0
 28 27  1  0  0  0  0
 28 31  1  0  0  0  0
 28 74  1  1  0  0  0
 29 28  1  0  0  0  0
 29 30  2  0  0  0  0
 31 32  1  0  0  0  0
 31 75  1  0  0  0  0
 31 76  1  0  0  0  0
 32 33  1  0  0  0  0
 32 34  1  0  0  0  0
 32 77  1  0  0  0  0
 33 78  1  0  0  0  0
 33 79  1  0  0  0  0
 33 80  1  0  0  0  0
 34 81  1  0  0  0  0
 34 82  1  0  0  0  0
 34 83  1  0  0  0  0
 36 35  2  0  0  0  0
 36 37  2  0  0  0  0
 36 38  1  0  0  0  0
 38 84  1  0  0  0  0
 38 85  1  0  0  0  0
 38 86  1  0  0  0  0
 39 36  1  0  0  0  0
 39 87  1  0  0  0  0
 39 88  1  0  0  0  0
 40 39  1  0  0  0  0
 40 89  1  0  0  0  0
 40 90  1  0  0  0  0
 41 40  1  0  0  0  0
 41 42  1  0  0  0  0
 41 51  1  0  0  0  0
 41 91  1  6  0  0  0
 42 43  1  0  0  0  0
 42 92  1  0  0  0  0
 42 93  1  0  0  0  0
 43 44  2  0  0  0  0
 43 50  1  0  0  0  0
 44 45  1  0  0  0  0
 44 94  1  0  0  0  0
 45 46  2  0  0  0  0
 45 95  1  0  0  0  0
 46 47  1  0  0  0  0
 46 49  1  0  0  0  0
 47 48  1  0  0  0  0
 47 96  1  0  0  0  0
 47 97  1  0  0  0  0
 48 98  1  0  0  0  0
 48 99  1  0  0  0  0
 48100  1  0  0  0  0
 49 50  2  0  0  0  0
 49101  1  0  0  0  0
 50102  1  0  0  0  0
 51 29  1  0  0  0  0
 51103  1  0  0  0  0
M  CHG  2  23   1  48   1
M  END
