4ipf_ligand
 OpenBabel08222323353D

 98102  0  0  1  0  0  0  0  0999 V2000
   12.5930    8.4480   35.6800 N   0  0  0  0  0  0  0  0  0  0  0  0
   11.6930    9.0880   34.7370 C   0  0  2  0  0  0  0  0  0  0  0  0
   10.6480    8.1090   34.1730 C   0  0  0  0  0  0  0  0  0  0  0  0
   12.5190    9.7250   33.6330 C   0  0  0  0  0  0  0  0  0  0  0  0
   11.0400   10.1620   35.6600 C   0  0  2  0  0  0  0  0  0  0  0  0
    9.7150    9.6460   36.2220 C   0  0  0  0  0  0  0  0  0  0  0  0
   10.8030   11.4630   34.9430 C   0  0  0  0  0  0  0  0  0  0  0  0
   11.9970   10.3170   36.7720 N   0  0  0  0  0  0  0  0  0  0  0  0
   12.8170    9.3230   36.8000 C   0  0  0  0  0  0  0  0  0  0  0  0
   13.8480    9.0940   37.8320 C   0  0  0  0  0  0  0  0  0  0  0  0
   13.8950    9.9110   33.8140 C   0  0  0  0  0  0  0  0  0  0  0  0
   14.6510   10.5850   32.8470 C   0  0  0  0  0  0  0  0  0  0  0  0
   14.0230   11.0690   31.6990 C   0  0  0  0  0  0  0  0  0  0  0  0
   14.9490   12.0200   30.5330 Cl  0  0  0  0  0  0  0  0  0  0  0  0
   12.6640   10.8230   31.4760 C   0  0  0  0  0  0  0  0  0  0  0  0
   11.9130   10.1510   32.4430 C   0  0  0  0  0  0  0  0  0  0  0  0
    9.5430   11.7220   34.3940 C   0  0  0  0  0  0  0  0  0  0  0  0
    9.3140   12.9070   33.7010 C   0  0  0  0  0  0  0  0  0  0  0  0
   10.3530   13.8250   33.5590 C   0  0  0  0  0  0  0  0  0  0  0  0
   10.0880   15.3050   32.6470 Cl  0  0  0  0  0  0  0  0  0  0  0  0
   11.6080   13.5830   34.1220 C   0  0  0  0  0  0  0  0  0  0  0  0
   11.8280   12.4000   34.8190 C   0  0  0  0  0  0  0  0  0  0  0  0
   13.0660    7.0970   35.4780 C   0  0  0  0  0  0  0  0  0  0  0  0
   13.3310    6.7080   34.3340 O   0  0  0  0  0  0  0  0  0  0  0  0
   13.2410    6.2470   36.5800 N   0  0  0  0  0  0  0  0  0  0  0  0
   13.8940    4.9610   36.3600 C   0  0  0  0  0  0  0  0  0  0  0  0
   14.7730    4.6360   37.5540 C   0  0  0  0  0  0  0  0  0  0  0  0
   13.9860    4.6500   38.8110 N   0  3  2  0  0  0  0  0  0  0  0  0
   13.3380    5.9800   39.0310 C   0  0  0  0  0  0  0  0  0  0  0  0
   12.4680    6.3950   37.8190 C   0  0  0  0  0  0  0  0  0  0  0  0
   13.5640    9.4060   39.1630 C   0  0  0  0  0  0  0  0  0  0  0  0
   14.5320    9.2370   40.1560 C   0  0  0  0  0  0  0  0  0  0  0  0
   15.8000    8.7430   39.8310 C   0  0  0  0  0  0  0  0  0  0  0  0
   16.8240    8.5630   40.9220 C   0  0  0  0  0  0  0  0  0  0  0  0
   17.7970    9.7470   40.9110 C   0  0  0  0  0  0  0  0  0  0  0  0
   17.6040    7.2640   40.6970 C   0  0  0  0  0  0  0  0  0  0  0  0
   16.1090    8.4270   38.5040 C   0  0  0  0  0  0  0  0  0  0  0  0
   15.1270    8.6120   37.5190 C   0  0  0  0  0  0  0  0  0  0  0  0
   15.4220    8.3400   36.2110 O   0  0  0  0  0  0  0  0  0  0  0  0
   16.7390    7.8810   35.9490 C   0  0  0  0  0  0  0  0  0  0  0  0
   16.8820    7.5420   34.4590 C   0  0  0  0  0  0  0  0  0  0  0  0
   16.1170    8.5010   42.2790 C   0  0  0  0  0  0  0  0  0  0  0  0
   14.1050    4.2660   41.2850 C   0  0  0  0  0  0  0  0  0  0  0  0
   15.0680    3.7860   42.3820 C   0  0  0  0  0  0  0  0  0  0  0  0
   14.4700    4.2170   43.9960 S   0  0  0  0  0  0  0  0  0  0  0  0
   15.5690    3.4180   45.1430 C   0  0  0  0  0  0  0  0  0  0  0  0
   13.1380    3.6560   44.1630 O   0  0  0  0  0  0  0  0  0  0  0  0
   14.5940    5.6660   44.1580 O   0  0  0  0  0  0  0  0  0  0  0  0
   14.8370    4.2230   39.9420 C   0  0  0  0  0  0  0  0  0  0  0  0
    9.9926    8.6393   33.4665 H   0  0  0  0  0  0  0  0  0  0  0  0
   10.0447    7.7015   34.9976 H   0  0  0  0  0  0  0  0  0  0  0  0
   11.1598    7.2866   33.6518 H   0  0  0  0  0  0  0  0  0  0  0  0
    9.2677   10.4141   36.8700 H   0  0  0  0  0  0  0  0  0  0  0  0
    9.8959    8.7324   36.8074 H   0  0  0  0  0  0  0  0  0  0  0  0
    9.0281    9.4203   35.3930 H   0  0  0  0  0  0  0  0  0  0  0  0
   14.3775    9.5313   34.7073 H   0  0  0  0  0  0  0  0  0  0  0  0
   15.7159   10.7296   32.9893 H   0  0  0  0  0  0  0  0  0  0  0  0
   12.1954   11.1528   30.5558 H   0  0  0  0  0  0  0  0  0  0  0  0
   10.8598    9.9586   32.2730 H   0  0  0  0  0  0  0  0  0  0  0  0
    8.7437   10.9988   34.5084 H   0  0  0  0  0  0  0  0  0  0  0  0
    8.3383   13.1137   33.2764 H   0  0  0  0  0  0  0  0  0  0  0  0
   12.4039   14.3113   34.0165 H   0  0  0  0  0  0  0  0  0  0  0  0
   12.7964   12.2063   35.2659 H   0  0  0  0  0  0  0  0  0  0  0  0
   14.5122    5.0130   35.4516 H   0  0  0  0  0  0  0  0  0  0  0  0
   13.1317    4.1771   36.2404 H   0  0  0  0  0  0  0  0  0  0  0  0
   15.5763    5.3842   37.6239 H   0  0  0  0  0  0  0  0  0  0  0  0
   15.2130    3.6373   37.4159 H   0  0  0  0  0  0  0  0  0  0  0  0
   13.2463    3.9716   38.7181 H   0  0  0  0  0  0  0  0  0  0  0  0
   14.1204    6.7376   39.1854 H   0  0  0  0  0  0  0  0  0  0  0  0
   12.7006    5.9234   39.9257 H   0  0  0  0  0  0  0  0  0  0  0  0
   11.5762    5.7527   37.7723 H   0  0  0  0  0  0  0  0  0  0  0  0
   12.1585    7.4443   37.9336 H   0  0  0  0  0  0  0  0  0  0  0  0
   12.5829    9.7830   39.4284 H   0  0  0  0  0  0  0  0  0  0  0  0
   14.2994    9.4900   41.1841 H   0  0  0  0  0  0  0  0  0  0  0  0
   18.5441    9.6150   41.7075 H   0  0  0  0  0  0  0  0  0  0  0  0
   17.2406   10.6805   41.0813 H   0  0  0  0  0  0  0  0  0  0  0  0
   18.3048    9.7953   39.9364 H   0  0  0  0  0  0  0  0  0  0  0  0
   16.9078    6.4124   40.7044 H   0  0  0  0  0  0  0  0  0  0  0  0
   18.3459    7.1381   41.4993 H   0  0  0  0  0  0  0  0  0  0  0  0
   18.1183    7.3086   39.7257 H   0  0  0  0  0  0  0  0  0  0  0  0
   17.0893    8.0461   38.2413 H   0  0  0  0  0  0  0  0  0  0  0  0
   16.9389    6.9813   36.5494 H   0  0  0  0  0  0  0  0  0  0  0  0
   17.4602    8.6676   36.2158 H   0  0  0  0  0  0  0  0  0  0  0  0
   17.9039    7.1867   34.2603 H   0  0  0  0  0  0  0  0  0  0  0  0
   16.6830    8.4413   33.8576 H   0  0  0  0  0  0  0  0  0  0  0  0
   16.1617    6.7550   34.1912 H   0  0  0  0  0  0  0  0  0  0  0  0
   15.5560    9.4329   42.4430 H   0  0  0  0  0  0  0  0  0  0  0  0
   16.8644    8.3778   43.0766 H   0  0  0  0  0  0  0  0  0  0  0  0
   15.4227    7.6479   42.2921 H   0  0  0  0  0  0  0  0  0  0  0  0
   13.7828    5.2958   41.4989 H   0  0  0  0  0  0  0  0  0  0  0  0
   13.2254    3.6065   41.2491 H   0  0  0  0  0  0  0  0  0  0  0  0
   16.0508    4.2549   42.2267 H   0  0  0  0  0  0  0  0  0  0  0  0
   15.1690    2.6926   42.3172 H   0  0  0  0  0  0  0  0  0  0  0  0
   15.2534    3.6452   46.1720 H   0  0  0  0  0  0  0  0  0  0  0  0
   16.5940    3.7844   44.9846 H   0  0  0  0  0  0  0  0  0  0  0  0
   15.5394    2.3302   44.9821 H   0  0  0  0  0  0  0  0  0  0  0  0
   15.7100    4.8900   39.9962 H   0  0  0  0  0  0  0  0  0  0  0  0
   15.1740    3.1921   39.7585 H   0  0  0  0  0  0  0  0  0  0  0  0
  1  2  1  0  0  0  0
  1  9  1  0  0  0  0
  2  3  1  6  0  0  0
  2  4  1  0  0  0  0
  2  5  1  0  0  0  0
  3 50  1  0  0  0  0
  3 51  1  0  0  0  0
  3 52  1  0  0  0  0
  4 11  2  0  0  0  0
  4 16  1  0  0  0  0
  5  6  1  1  0  0  0
  5  7  1  0  0  0  0
  6 53  1  0  0  0  0
  6 54  1  0  0  0  0
  6 55  1  0  0  0  0
  7 17  2  0  0  0  0
  7 22  1  0  0  0  0
  8  5  1  0  0  0  0
  9  8  2  0  0  0  0
  9 10  1  0  0  0  0
 10 31  2  0  0  0  0
 10 38  1  0  0  0  0
 11 12  1  0  0  0  0
 11 56  1  0  0  0  0
 12 13  2  0  0  0  0
 12 57  1  0  0  0  0
 13 14  1  0  0  0  0
 15 13  1  0  0  0  0
 15 58  1  0  0  0  0
 16 15  2  0  0  0  0
 16 59  1  0  0  0  0
 17 18  1  0  0  0  0
 17 60  1  0  0  0  0
 18 19  2  0  0  0  0
 18 61  1  0  0  0  0
 19 20  1  0  0  0  0
 21 19  1  0  0  0  0
 21 62  1  0  0  0  0
 22 21  2  0  0  0  0
 22 63  1  0  0  0  0
 23  1  1  0  0  0  0
 23 24  2  0  0  0  0
 25 23  1  0  0  0  0
 26 25  1  0  0  0  0
 26 64  1  0  0  0  0
 26 65  1  0  0  0  0
 27 26  1  0  0  0  0
 27 66  1  0  0  0  0
 27 67  1  0  0  0  0
 28 27  1  0  0  0  0
 28 29  1  0  0  0  0
 28 68  1  6  0  0  0
 29 30  1  0  0  0  0
 29 69  1  0  0  0  0
 29 70  1  0  0  0  0
 30 25  1  0  0  0  0
 30 71  1  0  0  0  0
 30 72  1  0  0  0  0
 31 32  1  0  0  0  0
 31 73  1  0  0  0  0
 32 33  2  0  0  0  0
 32 74  1  0  0  0  0
 33 34  1  0  0  0  0
 34 35  1  0  0  0  0
 34 36  1  0  0  0  0
 34 42  1  0  0  0  0
 35 75  1  0  0  0  0
 35 76  1  0  0  0  0
 35 77  1  0  0  0  0
 36 78  1  0  0  0  0
 36 79  1  0  0  0  0
 36 80  1  0  0  0  0
 37 33  1  0  0  0  0
 37 81  1  0  0  0  0
 38 37  2  0  0  0  0
 38 39  1  0  0  0  0
 39 40  1  0  0  0  0
 40 41  1  0  0  0  0
 40 82  1  0  0  0  0
 40 83  1  0  0  0  0
 41 84  1  0  0  0  0
 41 85  1  0  0  0  0
 41 86  1  0  0  0  0
 42 87  1  0  0  0  0
 42 88  1  0  0  0  0
 42 89  1  0  0  0  0
 43 44  1  0  0  0  0
 43 49  1  0  0  0  0
 43 90  1  0  0  0  0
 43 91  1  0  0  0  0
 44 45  1  0  0  0  0
 44 92  1  0  0  0  0
 44 93  1  0  0  0  0
 45 46  1  0  0  0  0
 45 47  2  0  0  0  0
 45 48  2  0  0  0  0
 46 94  1  0  0  0  0
 46 95  1  0  0  0  0
 46 96  1  0  0  0  0
 49 28  1  0  0  0  0
 49 97  1  0  0  0  0
 49 98  1  0  0  0  0
M  CHG  1  28   1
M  END
