4iqt_ligand
 OpenBabel08222323353D

 39 40  0  0  1  0  0  0  0  0999 V2000
   20.1980    7.9910   15.9300 O   0  0  0  0  0  0  0  0  0  0  0  0
   19.4620   11.0920   11.6090 O   0  5  0  0  0  0  0  0  0  0  0  0
   15.6100    8.0500   23.1790 O   0  0  0  0  0  0  0  0  0  0  0  0
   18.8370   12.2140   13.2890 O   0  0  0  0  0  0  0  0  0  0  0  0
   19.0850    8.5270   13.3250 O   0  0  0  0  0  0  0  0  0  0  0  0
   16.7290    3.9500   26.4020 F   0  0  0  0  0  0  0  0  0  0  0  0
   19.0130    9.0070   17.7840 C   0  0  0  0  0  0  0  0  0  0  0  0
   17.6510    8.3010   18.0160 C   0  0  0  0  0  0  0  0  0  0  0  0
   18.8890    9.9270   15.3500 C   0  0  0  0  0  0  0  0  0  0  0  0
   19.4760    6.0460   24.7090 C   0  0  0  0  0  0  0  0  0  0  0  0
   18.7830    5.1230   25.5600 C   0  0  0  0  0  0  0  0  0  0  0  0
   18.6970    6.7900   23.7670 C   0  0  0  0  0  0  0  0  0  0  0  0
   16.2440    6.4060   20.5210 C   0  0  0  0  0  0  0  0  0  0  0  0
   16.6390    5.6960   24.5800 C   0  0  0  0  0  0  0  0  0  0  0  0
   17.5560    8.1490   20.4950 C   0  0  0  0  0  0  0  0  0  0  0  0
   16.4570    6.7530   19.2440 N   0  0  0  0  0  0  0  0  0  0  0  0
   19.4440    8.8860   16.3210 C   0  0  0  0  0  0  0  0  0  0  0  0
   19.1780   11.1020   12.8570 C   0  0  0  0  0  0  0  0  0  0  0  0
   19.2530    9.8250   13.8320 C   0  0  2  0  0  0  0  0  0  0  0  0
   16.5440    7.3970   22.7230 C   0  0  0  0  0  0  0  0  0  0  0  0
   17.3700    4.8960   25.5470 C   0  0  0  0  0  0  0  0  0  0  0  0
   17.2760    7.8000   19.2010 C   0  0  0  0  0  0  0  0  0  0  0  0
   17.2680    6.6490   23.6730 C   0  0  0  0  0  0  0  0  0  0  0  0
   16.7930    7.3300   21.3230 C   0  0  0  0  0  0  0  0  0  0  0  0
   19.6462    7.9268   13.8019 H   0  0  0  0  0  0  0  0  0  0  0  0
   19.7754    8.5397   18.4246 H   0  0  0  0  0  0  0  0  0  0  0  0
   18.9169   10.0712   18.0450 H   0  0  0  0  0  0  0  0  0  0  0  0
   17.6236    7.4582   17.3096 H   0  0  0  0  0  0  0  0  0  0  0  0
   16.8796    9.0353   17.7409 H   0  0  0  0  0  0  0  0  0  0  0  0
   19.2379   10.9101   15.6988 H   0  0  0  0  0  0  0  0  0  0  0  0
   17.7923    9.8806   15.4213 H   0  0  0  0  0  0  0  0  0  0  0  0
   20.5501    6.1753   24.7768 H   0  0  0  0  0  0  0  0  0  0  0  0
   19.3748    4.5535   26.2675 H   0  0  0  0  0  0  0  0  0  0  0  0
   19.2001    7.4828   23.1022 H   0  0  0  0  0  0  0  0  0  0  0  0
   15.7108    5.5167   20.8538 H   0  0  0  0  0  0  0  0  0  0  0  0
   15.5627    5.5777   24.5295 H   0  0  0  0  0  0  0  0  0  0  0  0
   18.2486    8.9250   20.8175 H   0  0  0  0  0  0  0  0  0  0  0  0
   16.0497    6.2820   18.4235 H   0  0  0  0  0  0  0  0  0  0  0  0
   20.3479    9.8129   13.9370 H   0  0  0  0  0  0  0  0  0  0  0  0
  5 25  1  0  0  0  0
  7 17  1  0  0  0  0
  7 26  1  0  0  0  0
  7 27  1  0  0  0  0
  8  7  1  0  0  0  0
  8 28  1  0  0  0  0
  8 29  1  0  0  0  0
  9 19  1  0  0  0  0
  9 30  1  0  0  0  0
  9 31  1  0  0  0  0
 10 11  2  0  0  0  0
 10 32  1  0  0  0  0
 11 33  1  0  0  0  0
 12 10  1  0  0  0  0
 12 34  1  0  0  0  0
 13 16  1  0  0  0  0
 13 35  1  0  0  0  0
 14 21  2  0  0  0  0
 14 36  1  0  0  0  0
 15 22  2  0  0  0  0
 15 37  1  0  0  0  0
 16 38  1  0  0  0  0
 17  1  2  0  0  0  0
 17  9  1  0  0  0  0
 18  2  1  0  0  0  0
 18  4  2  0  0  0  0
 19  5  1  0  0  0  0
 19 18  1  0  0  0  0
 19 39  1  1  0  0  0
 20  3  2  0  0  0  0
 20 23  1  0  0  0  0
 20 24  1  0  0  0  0
 21  6  1  0  0  0  0
 21 11  1  0  0  0  0
 22  8  1  0  0  0  0
 22 16  1  0  0  0  0
 23 12  2  0  0  0  0
 23 14  1  0  0  0  0
 24 13  2  0  0  0  0
 24 15  1  0  0  0  0
M  CHG  1   2  -1
M  END
