4ir6_ligand
 OpenBabel08222323353D

 48 51  0  0  0  0  0  0  0  0999 V2000
   24.5890   10.8720    0.7340 C   0  0  0  0  0  0  0  0  0  0  0  0
   25.1130    9.4220    0.9070 C   0  0  0  0  0  0  0  0  0  0  0  0
   24.3530    8.4960    1.1620 O   0  0  0  0  0  0  0  0  0  0  0  0
   26.4810    9.2420    0.7720 C   0  0  0  0  0  0  0  0  0  0  0  0
   27.4160   10.2800    0.5670 C   0  0  0  0  0  0  0  0  0  0  0  0
   28.7140    9.6460    0.4790 C   0  0  0  0  0  0  0  0  0  0  0  0
   29.9870   10.3540    0.3800 C   0  0  0  0  0  0  0  0  0  0  0  0
   30.5610   10.6050    1.6150 C   0  0  0  0  0  0  0  0  0  0  0  0
   31.7770   11.2380    1.6990 C   0  0  0  0  0  0  0  0  0  0  0  0
   32.3900   11.7330    0.5730 C   0  0  0  0  0  0  0  0  0  0  0  0
   31.8400   11.5200   -0.6640 C   0  0  0  0  0  0  0  0  0  0  0  0
   30.6250   10.8590   -0.7520 C   0  0  0  0  0  0  0  0  0  0  0  0
   29.9800   10.6450   -2.3770 S   0  0  0  0  0  0  0  0  0  0  0  0
   28.6670   11.8080   -2.5650 C   0  0  0  0  0  0  0  0  0  0  0  0
   31.0210   10.9970   -3.3100 O   0  0  0  0  0  0  0  0  0  0  0  0
   29.4230    9.3240   -2.4670 O   0  0  0  0  0  0  0  0  0  0  0  0
   28.5060    8.2670    0.7030 C   0  0  0  0  0  0  0  0  0  0  0  0
   29.4040    7.1670    0.7630 C   0  0  0  0  0  0  0  0  0  0  0  0
   28.8870    5.9380    0.9730 C   0  0  0  0  0  0  0  0  0  0  0  0
   29.6650    4.7710    1.0380 O   0  0  0  0  0  0  0  0  0  0  0  0
   31.0470    4.8090    1.2250 C   0  0  0  0  0  0  0  0  0  0  0  0
   31.8730    4.3930    0.1920 C   0  0  0  0  0  0  0  0  0  0  0  0
   33.2480    4.4030    0.3720 C   0  0  0  0  0  0  0  0  0  0  0  0
   33.7950    4.8100    1.5740 C   0  0  0  0  0  0  0  0  0  0  0  0
   32.9700    5.2040    2.6050 C   0  0  0  0  0  0  0  0  0  0  0  0
   31.5830    5.2160    2.4370 C   0  0  0  0  0  0  0  0  0  0  0  0
   27.5320    5.7180    1.1340 C   0  0  0  0  0  0  0  0  0  0  0  0
   26.6620    6.7760    1.0610 C   0  0  0  0  0  0  0  0  0  0  0  0
   27.1340    8.0400    0.8210 N   0  0  0  0  0  0  0  0  0  0  0  0
   25.4321   11.5423    0.5107 H   0  0  0  0  0  0  0  0  0  0  0  0
   24.0977   11.1976    1.6628 H   0  0  0  0  0  0  0  0  0  0  0  0
   23.8658   10.9042   -0.0942 H   0  0  0  0  0  0  0  0  0  0  0  0
   27.2029   11.3452    0.4904 H   0  0  0  0  0  0  0  0  0  0  0  0
   30.0480   10.3003    2.5200 H   0  0  0  0  0  0  0  0  0  0  0  0
   32.2584   11.3483    2.6639 H   0  0  0  0  0  0  0  0  0  0  0  0
   33.3128   12.2945    0.6637 H   0  0  0  0  0  0  0  0  0  0  0  0
   32.3468   11.8628   -1.5588 H   0  0  0  0  0  0  0  0  0  0  0  0
   28.2318   11.7102   -3.5705 H   0  0  0  0  0  0  0  0  0  0  0  0
   29.0583   12.8274   -2.4324 H   0  0  0  0  0  0  0  0  0  0  0  0
   27.8921   11.6115   -1.8094 H   0  0  0  0  0  0  0  0  0  0  0  0
   30.4767    7.3114    0.6432 H   0  0  0  0  0  0  0  0  0  0  0  0
   31.4474    4.0626   -0.7487 H   0  0  0  0  0  0  0  0  0  0  0  0
   33.8986    4.0892   -0.4363 H   0  0  0  0  0  0  0  0  0  0  0  0
   34.8709    4.8193    1.7056 H   0  0  0  0  0  0  0  0  0  0  0  0
   33.4000    5.5067    3.5529 H   0  0  0  0  0  0  0  0  0  0  0  0
   30.9348    5.5392    3.2435 H   0  0  0  0  0  0  0  0  0  0  0  0
   27.1578    4.7119    1.3175 H   0  0  0  0  0  0  0  0  0  0  0  0
   25.5938    6.6111    1.1941 H   0  0  0  0  0  0  0  0  0  0  0  0
  1  2  1  0  0  0  0
  1 30  1  0  0  0  0
  1 31  1  0  0  0  0
  1 32  1  0  0  0  0
  2  3  2  0  0  0  0
  2  4  1  0  0  0  0
  4  5  2  0  0  0  0
  4 29  1  0  0  0  0
  5  6  1  0  0  0  0
  5 33  1  0  0  0  0
  6  7  1  0  0  0  0
  6 17  2  0  0  0  0
  7  8  2  0  0  0  0
  7 12  1  0  0  0  0
  8  9  1  0  0  0  0
  8 34  1  0  0  0  0
  9 10  2  0  0  0  0
  9 35  1  0  0  0  0
 10 11  1  0  0  0  0
 10 36  1  0  0  0  0
 11 12  2  0  0  0  0
 11 37  1  0  0  0  0
 12 13  1  0  0  0  0
 13 14  1  0  0  0  0
 13 15  2  0  0  0  0
 13 16  2  0  0  0  0
 14 38  1  0  0  0  0
 14 39  1  0  0  0  0
 14 40  1  0  0  0  0
 17 18  1  0  0  0  0
 17 29  1  0  0  0  0
 18 19  2  0  0  0  0
 18 41  1  0  0  0  0
 19 20  1  0  0  0  0
 19 27  1  0  0  0  0
 20 21  1  0  0  0  0
 21 22  2  0  0  0  0
 21 26  1  0  0  0  0
 22 23  1  0  0  0  0
 22 42  1  0  0  0  0
 23 24  2  0  0  0  0
 23 43  1  0  0  0  0
 24 25  1  0  0  0  0
 24 44  1  0  0  0  0
 25 26  2  0  0  0  0
 25 45  1  0  0  0  0
 26 46  1  0  0  0  0
 27 28  2  0  0  0  0
 27 47  1  0  0  0  0
 28 29  1  0  0  0  0
 28 48  1  0  0  0  0
M  END
