4iu4_ligand
 OpenBabel08222323353D

 28 27  0  0  1  0  0  0  0  0999 V2000
   13.7710  -23.9470   -7.2620 O   0  5  0  0  0  0  0  0  0  0  0  0
   11.4330  -22.7310   -6.4150 N   0  3  0  0  0  0  0  0  0  0  0  0
   12.0580  -22.2560   -7.6270 C   0  0  2  0  0  0  0  0  0  0  0  0
   13.1600  -23.2400   -8.0250 C   0  0  0  0  0  0  0  0  0  0  0  0
   13.3860  -23.2460   -9.3620 O   0  0  0  0  0  0  0  0  0  0  0  0
   12.4690  -20.7960   -7.3720 C   0  0  0  0  0  0  0  0  0  0  0  0
   14.1270  -20.3730   -8.0110 S   0  0  0  0  0  0  0  0  0  0  0  0
   14.2420  -18.6390   -7.4660 C   0  0  0  0  0  0  0  0  0  0  0  0
   15.5840  -18.0230   -7.8530 C   0  0  0  0  0  0  0  0  0  0  0  0
   15.6790  -16.5140   -7.3680 B   0  0  0  0  0  0  0  0  0  0  0  0
   15.0130  -16.3660   -5.8330 O   0  0  0  0  0  0  0  0  0  0  0  0
   17.2680  -16.0170   -7.2820 O   0  0  0  0  0  0  0  0  0  0  0  0
   14.8320  -15.5080   -8.4020 O   0  0  0  0  0  0  0  0  0  0  0  0
   10.7037  -22.0917   -6.1402 H   0  0  0  0  0  0  0  0  0  0  0  0
   12.1224  -22.7893   -5.6820 H   0  0  0  0  0  0  0  0  0  0  0  0
   11.0365  -23.6435   -6.5767 H   0  0  0  0  0  0  0  0  0  0  0  0
   11.3173  -22.2530   -8.4403 H   0  0  0  0  0  0  0  0  0  0  0  0
   12.4602  -20.6180   -6.2865 H   0  0  0  0  0  0  0  0  0  0  0  0
   11.7325  -20.1388   -7.8574 H   0  0  0  0  0  0  0  0  0  0  0  0
   14.1318  -18.5992   -6.3723 H   0  0  0  0  0  0  0  0  0  0  0  0
   13.4334  -18.0610   -7.9373 H   0  0  0  0  0  0  0  0  0  0  0  0
   16.3827  -18.7661   -7.7122 H   0  0  0  0  0  0  0  0  0  0  0  0
   15.5541  -17.7120   -8.9077 H   0  0  0  0  0  0  0  0  0  0  0  0
   15.3598  -15.5027   -6.1996 H   0  0  0  0  0  0  0  0  0  0  0  0
   17.6573  -16.0532   -8.1479 H   0  0  0  0  0  0  0  0  0  0  0  0
   17.6572  -16.0532   -8.1478 H   0  0  0  0  0  0  0  0  0  0  0  0
   13.9271  -15.7935   -8.4491 H   0  0  0  0  0  0  0  0  0  0  0  0
   13.9272  -15.7935   -8.4491 H   0  0  0  0  0  0  0  0  0  0  0  0
  2 14  1  0  0  0  0
  2 15  1  0  0  0  0
  2 16  1  0  0  0  0
  3  2  1  0  0  0  0
  3  4  1  0  0  0  0
  3  6  1  0  0  0  0
  3 17  1  6  0  0  0
  4  1  1  0  0  0  0
  4  5  2  0  0  0  0
  6  7  1  0  0  0  0
  6 18  1  0  0  0  0
  6 19  1  0  0  0  0
  7  8  1  0  0  0  0
  8  9  1  0  0  0  0
  8 20  1  0  0  0  0
  8 21  1  0  0  0  0
  9 10  1  0  0  0  0
  9 22  1  0  0  0  0
  9 23  1  0  0  0  0
 10 12  1  0  0  0  0
 10 13  1  0  0  0  0
 10 11  1  0  0  0  0
 11 24  1  0  0  0  0
 12 25  1  0  0  0  0
 12 26  1  0  0  0  0
 13 27  1  0  0  0  0
 13 28  1  0  0  0  0
M  CHG  2   1  -1   2   1
M  END
