4iuu_ligand
 OpenBabel08222323353D

140139  0  0  1  0  0  0  0  0999 V2000
   -1.5340  -14.3310   20.9970 N   0  3  0  0  0  0  0  0  0  0  0  0
   -2.0090  -14.4580   22.3690 C   0  0  2  0  0  0  0  0  0  0  0  0
   -2.9090  -13.2890   22.7510 C   0  0  0  0  0  0  0  0  0  0  0  0
   -2.8890  -12.2430   22.1060 O   0  0  0  0  0  0  0  0  0  0  0  0
   -0.8400  -14.5300   23.3650 C   0  0  2  0  0  0  0  0  0  0  0  0
   -0.3790  -13.2050   23.6570 O   0  0  0  0  0  0  0  0  0  0  0  0
    0.3030  -15.3440   22.7840 C   0  0  0  0  0  0  0  0  0  0  0  0
   -3.6960  -13.4740   23.8050 N   0  0  0  0  0  0  0  0  0  0  0  0
   -4.5990  -12.4330   24.2780 C   0  0  2  0  0  0  0  0  0  0  0  0
   -3.8180  -11.2360   24.8050 C   0  0  0  0  0  0  0  0  0  0  0  0
   -2.5960  -11.2860   24.9280 O   0  0  0  0  0  0  0  0  0  0  0  0
   -5.5200  -12.9780   25.3700 C   0  0  0  0  0  0  0  0  0  0  0  0
   -6.9460  -13.2300   24.9120 C   0  0  0  0  0  0  0  0  0  0  0  0
   -7.8260  -13.6770   26.0670 C   0  0  0  0  0  0  0  0  0  0  0  0
   -8.8060  -14.7550   25.6320 C   0  0  0  0  0  0  0  0  0  0  0  0
   -9.5090  -15.3680   26.7910 N   0  3  0  0  0  0  0  0  0  0  0  0
   -4.5320  -10.1600   25.1130 N   0  0  0  0  0  0  0  0  0  0  0  0
   -3.9080   -8.9550   25.6440 C   0  0  2  0  0  0  0  0  0  0  0  0
   -4.1050   -8.8660   27.1510 C   0  0  0  0  0  0  0  0  0  0  0  0
   -5.0210   -9.4740   27.7030 O   0  0  0  0  0  0  0  0  0  0  0  0
   -4.4800   -7.7100   24.9640 C   0  0  0  0  0  0  0  0  0  0  0  0
   -4.5170   -7.7950   23.4480 C   0  0  0  0  0  0  0  0  0  0  0  0
   -4.3220   -6.4480   22.7850 C   0  0  0  0  0  0  0  0  0  0  0  0
   -4.2410   -5.4200   23.4550 O   0  0  0  0  0  0  0  0  0  0  0  0
   -4.2470   -6.4460   21.4600 N   0  0  0  0  0  0  0  0  0  0  0  0
   -3.2390   -8.1080   27.8130 N   0  0  0  0  0  0  0  0  0  0  0  0
   -3.3240   -7.9400   29.2570 C   0  0  2  0  0  0  0  0  0  0  0  0
   -4.4320   -6.9610   29.6240 C   0  0  0  0  0  0  0  0  0  0  0  0
   -4.4070   -5.8010   29.2190 O   0  0  0  0  0  0  0  0  0  0  0  0
   -1.9930   -7.4500   29.8470 C   0  0  2  0  0  0  0  0  0  0  0  0
   -0.9070   -7.9790   29.0770 O   0  0  0  0  0  0  0  0  0  0  0  0
   -1.8520   -7.9050   31.2890 C   0  0  0  0  0  0  0  0  0  0  0  0
   -5.4050   -7.4380   30.3920 N   0  0  0  0  0  0  0  0  0  0  0  0
   -6.5410   -6.6180   30.7890 C   0  0  2  0  0  0  0  0  0  0  0  0
   -6.2310   -5.7770   32.0210 C   0  0  0  0  0  0  0  0  0  0  0  0
   -5.5830   -6.2430   32.9560 O   0  0  0  0  0  0  0  0  0  0  0  0
   -7.7600   -7.4900   31.0390 C   0  0  0  0  0  0  0  0  0  0  0  0
   -6.7050   -4.5360   32.0150 N   0  0  0  0  0  0  0  0  0  0  0  0
   -6.5330   -3.6460   33.1540 C   0  0  2  0  0  0  0  0  0  0  0  0
   -7.8860   -3.2560   33.7350 C   0  0  0  0  0  0  0  0  0  0  0  0
   -8.6760   -2.5740   33.0850 O   0  0  0  0  0  0  0  0  0  0  0  0
   -5.7430   -2.3980   32.7530 C   0  0  0  0  0  0  0  0  0  0  0  0
   -6.4020   -1.5600   31.6720 C   0  0  0  0  0  0  0  0  0  0  0  0
   -5.5250   -0.3830   31.2730 C   0  0  0  0  0  0  0  0  0  0  0  0
   -5.9830    0.2450   30.0360 N   0  0  0  0  0  0  0  0  0  0  0  0
   -6.8350    1.2640   29.9850 C   0  0  0  0  0  3  0  0  0  0  0  0
   -7.1970    1.7700   28.8140 N   0  0  0  0  0  0  0  0  0  0  0  0
   -7.3260    1.7770   31.1040 N   0  0  0  0  0  0  0  0  0  0  0  0
   -8.1480   -3.6980   34.9590 N   0  0  0  0  0  0  0  0  0  0  0  0
   -9.4370   -3.3990   35.6430 C   0  0  1  0  0  0  0  0  0  0  0  0
   -9.6520   -4.3760   36.7920 C   0  0  0  0  0  0  0  0  0  0  0  0
   -9.3220   -5.8010   36.3670 C   0  0  0  0  0  0  0  0  0  0  0  0
   -9.3790   -6.7560   37.5540 C   0  0  0  0  0  0  0  0  0  0  0  0
  -10.4380   -7.8300   37.3410 C   0  0  0  0  0  0  0  0  0  0  0  0
  -10.1790   -9.0160   38.1330 N   0  3  0  0  0  0  0  0  0  0  0  0
  -10.5560  -10.3200   37.6260 C   0  0  0  0  0  0  0  0  0  0  0  0
   -9.4700   -1.9940   36.1680 C   0  0  0  0  0  0  0  0  0  0  0  0
   -8.4300   -1.3860   36.4100 O   0  0  0  0  0  0  0  0  0  0  0  0
  -10.6750   -1.4640   36.3490 N   0  0  0  0  0  0  0  0  0  0  0  0
  -10.8450   -0.1070   36.8520 C   0  0  2  0  0  0  0  0  0  0  0  0
  -10.6290   -0.0450   38.3590 C   0  0  0  0  0  0  0  0  0  0  0  0
  -10.1596    0.9921   38.8991 O   0  5  0  0  0  0  0  0  0  0  0  0
  -12.2340    0.4290   36.4960 C   0  0  0  0  0  0  0  0  0  0  0  0
  -13.2340   -0.5470   36.7330 O   0  0  0  0  0  0  0  0  0  0  0  0
  -10.9227   -1.0411   39.0725 O   0  0  0  0  0  0  0  0  0  0  0  0
   -2.3229  -14.2865   20.3711 H   0  0  0  0  0  0  0  0  0  0  0  0
   -0.9644  -15.1291   20.7634 H   0  0  0  0  0  0  0  0  0  0  0  0
   -0.9863  -13.4895   20.9076 H   0  0  0  0  0  0  0  0  0  0  0  0
   -2.5909  -15.3884   22.4443 H   0  0  0  0  0  0  0  0  0  0  0  0
   -1.1869  -15.0075   24.2933 H   0  0  0  0  0  0  0  0  0  0  0  0
   -1.0887  -12.7005   24.0368 H   0  0  0  0  0  0  0  0  0  0  0  0
    1.1294  -15.3850   23.5088 H   0  0  0  0  0  0  0  0  0  0  0  0
    0.6538  -14.8721   21.8544 H   0  0  0  0  0  0  0  0  0  0  0  0
   -0.0462  -16.3645   22.5681 H   0  0  0  0  0  0  0  0  0  0  0  0
   -3.6680  -14.3502   24.2861 H   0  0  0  0  0  0  0  0  0  0  0  0
   -5.2182  -12.1003   23.4319 H   0  0  0  0  0  0  0  0  0  0  0  0
   -5.5459  -12.2504   26.1946 H   0  0  0  0  0  0  0  0  0  0  0  0
   -5.1009  -13.9283   25.7324 H   0  0  0  0  0  0  0  0  0  0  0  0
   -6.9413  -14.0143   24.1408 H   0  0  0  0  0  0  0  0  0  0  0  0
   -7.3556  -12.3013   24.4881 H   0  0  0  0  0  0  0  0  0  0  0  0
   -8.3903  -12.8110   26.4432 H   0  0  0  0  0  0  0  0  0  0  0  0
   -7.1882  -14.0758   26.8696 H   0  0  0  0  0  0  0  0  0  0  0  0
   -8.2546  -15.5407   25.0948 H   0  0  0  0  0  0  0  0  0  0  0  0
   -9.5527  -14.3064   24.9603 H   0  0  0  0  0  0  0  0  0  0  0  0
  -10.1472  -16.0751   26.4612 H   0  0  0  0  0  0  0  0  0  0  0  0
  -10.0228  -14.6566   27.2869 H   0  0  0  0  0  0  0  0  0  0  0  0
   -8.8333  -15.7877   27.4102 H   0  0  0  0  0  0  0  0  0  0  0  0
   -5.5226  -10.1769   24.9772 H   0  0  0  0  0  0  0  0  0  0  0  0
   -2.8290   -9.0021   25.4356 H   0  0  0  0  0  0  0  0  0  0  0  0
   -3.8605   -6.8462   25.2468 H   0  0  0  0  0  0  0  0  0  0  0  0
   -5.5074   -7.5590   25.3269 H   0  0  0  0  0  0  0  0  0  0  0  0
   -5.4924   -8.2007   23.1415 H   0  0  0  0  0  0  0  0  0  0  0  0
   -3.7169   -8.4716   23.1133 H   0  0  0  0  0  0  0  0  0  0  0  0
   -4.1185   -5.5851   20.9678 H   0  0  0  0  0  0  0  0  0  0  0  0
   -4.3190   -7.3054   20.9538 H   0  0  0  0  0  0  0  0  0  0  0  0
   -2.5120   -7.6420   27.3087 H   0  0  0  0  0  0  0  0  0  0  0  0
   -3.5608   -8.9180   29.7013 H   0  0  0  0  0  0  0  0  0  0  0  0
   -1.9652   -6.3510   29.8105 H   0  0  0  0  0  0  0  0  0  0  0  0
   -0.0841   -7.6757   29.4422 H   0  0  0  0  0  0  0  0  0  0  0  0
   -0.8948   -7.5458   31.6949 H   0  0  0  0  0  0  0  0  0  0  0  0
   -1.8788   -9.0039   31.3311 H   0  0  0  0  0  0  0  0  0  0  0  0
   -2.6802   -7.4948   31.8856 H   0  0  0  0  0  0  0  0  0  0  0  0
   -5.3561   -8.3861   30.7062 H   0  0  0  0  0  0  0  0  0  0  0  0
   -6.7712   -5.9330   29.9597 H   0  0  0  0  0  0  0  0  0  0  0  0
   -8.6086   -6.8570   31.3376 H   0  0  0  0  0  0  0  0  0  0  0  0
   -7.5384   -8.2087   31.8417 H   0  0  0  0  0  0  0  0  0  0  0  0
   -8.0156   -8.0355   30.1187 H   0  0  0  0  0  0  0  0  0  0  0  0
   -7.1925   -4.2047   31.2072 H   0  0  0  0  0  0  0  0  0  0  0  0
   -5.9642   -4.1814   33.9285 H   0  0  0  0  0  0  0  0  0  0  0  0
   -4.7564   -2.7181   32.3867 H   0  0  0  0  0  0  0  0  0  0  0  0
   -5.6161   -1.7691   33.6465 H   0  0  0  0  0  0  0  0  0  0  0  0
   -7.3625   -1.1793   32.0495 H   0  0  0  0  0  0  0  0  0  0  0  0
   -6.5793   -2.1904   30.7882 H   0  0  0  0  0  0  0  0  0  0  0  0
   -4.4945   -0.7402   31.1297 H   0  0  0  0  0  0  0  0  0  0  0  0
   -5.5451    0.3646   32.0796 H   0  0  0  0  0  0  0  0  0  0  0  0
   -5.6222   -0.1260   29.1454 H   0  0  0  0  0  0  0  0  0  0  0  0
   -7.8573    2.5596   28.7761 H   0  0  0  0  0  0  0  0  0  0  0  0
   -6.8179    1.3734   27.9423 H   0  0  0  0  0  0  0  0  0  0  0  0
   -7.0470    1.3865   32.0154 H   0  0  0  0  0  0  0  0  0  0  0  0
   -7.9866    2.5662   31.0623 H   0  0  0  0  0  0  0  0  0  0  0  0
   -7.4609   -4.2469   35.4351 H   0  0  0  0  0  0  0  0  0  0  0  0
  -10.2534   -3.5197   34.9158 H   0  0  0  0  0  0  0  0  0  0  0  0
  -10.7038   -4.3304   37.1108 H   0  0  0  0  0  0  0  0  0  0  0  0
   -9.0015   -4.0917   37.6322 H   0  0  0  0  0  0  0  0  0  0  0  0
   -8.3096   -5.8223   35.9374 H   0  0  0  0  0  0  0  0  0  0  0  0
  -10.0491   -6.1270   35.6087 H   0  0  0  0  0  0  0  0  0  0  0  0
   -9.6226   -6.1861   38.4627 H   0  0  0  0  0  0  0  0  0  0  0  0
   -8.3976   -7.2378   37.6754 H   0  0  0  0  0  0  0  0  0  0  0  0
  -10.4505   -8.1097   36.2772 H   0  0  0  0  0  0  0  0  0  0  0  0
  -11.4193   -7.4217   37.6244 H   0  0  0  0  0  0  0  0  0  0  0  0
  -10.6627   -8.8929   39.0087 H   0  0  0  0  0  0  0  0  0  0  0  0
   -9.1852   -9.0442   38.2991 H   0  0  0  0  0  0  0  0  0  0  0  0
  -10.2824  -11.0920   38.3603 H   0  0  0  0  0  0  0  0  0  0  0  0
  -10.0297  -10.5115   36.6793 H   0  0  0  0  0  0  0  0  0  0  0  0
  -11.6421  -10.3465   37.4537 H   0  0  0  0  0  0  0  0  0  0  0  0
  -11.4851   -2.0098   36.1348 H   0  0  0  0  0  0  0  0  0  0  0  0
  -10.0922    0.5339   36.3698 H   0  0  0  0  0  0  0  0  0  0  0  0
  -12.2495    0.7081   35.4321 H   0  0  0  0  0  0  0  0  0  0  0  0
  -12.4452    1.3162   37.1110 H   0  0  0  0  0  0  0  0  0  0  0  0
  -13.0584   -1.3143   36.2011 H   0  0  0  0  0  0  0  0  0  0  0  0
  1  2  1  0  0  0  0
  1 66  1  0  0  0  0
  1 67  1  0  0  0  0
  1 68  1  0  0  0  0
  2  3  1  0  0  0  0
  2  5  1  0  0  0  0
  2 69  1  1  0  0  0
  3  4  2  0  0  0  0
  3  8  1  0  0  0  0
  5  6  1  0  0  0  0
  5  7  1  0  0  0  0
  5 70  1  1  0  0  0
  6 71  1  0  0  0  0
  7 72  1  0  0  0  0
  7 73  1  0  0  0  0
  7 74  1  0  0  0  0
  8  9  1  0  0  0  0
  8 75  1  0  0  0  0
  9 10  1  0  0  0  0
  9 12  1  0  0  0  0
  9 76  1  6  0  0  0
 10 11  2  0  0  0  0
 10 17  1  0  0  0  0
 12 13  1  0  0  0  0
 12 77  1  0  0  0  0
 12 78  1  0  0  0  0
 13 14  1  0  0  0  0
 13 79  1  0  0  0  0
 13 80  1  0  0  0  0
 14 15  1  0  0  0  0
 14 81  1  0  0  0  0
 14 82  1  0  0  0  0
 15 16  1  0  0  0  0
 15 83  1  0  0  0  0
 15 84  1  0  0  0  0
 16 85  1  0  0  0  0
 16 86  1  0  0  0  0
 16 87  1  0  0  0  0
 17 18  1  0  0  0  0
 17 88  1  0  0  0  0
 18 19  1  0  0  0  0
 18 21  1  0  0  0  0
 18 89  1  6  0  0  0
 19 20  2  0  0  0  0
 19 26  1  0  0  0  0
 21 22  1  0  0  0  0
 21 90  1  0  0  0  0
 21 91  1  0  0  0  0
 22 23  1  0  0  0  0
 22 92  1  0  0  0  0
 22 93  1  0  0  0  0
 23 24  2  0  0  0  0
 23 25  1  0  0  0  0
 25 94  1  0  0  0  0
 25 95  1  0  0  0  0
 26 27  1  0  0  0  0
 26 96  1  0  0  0  0
 27 28  1  0  0  0  0
 27 30  1  0  0  0  0
 27 97  1  1  0  0  0
 28 29  2  0  0  0  0
 28 33  1  0  0  0  0
 30 31  1  0  0  0  0
 30 32  1  0  0  0  0
 30 98  1  6  0  0  0
 31 99  1  0  0  0  0
 32100  1  0  0  0  0
 32101  1  0  0  0  0
 32102  1  0  0  0  0
 33 34  1  0  0  0  0
 33103  1  0  0  0  0
 34 35  1  0  0  0  0
 34 37  1  0  0  0  0
 34104  1  6  0  0  0
 35 36  2  0  0  0  0
 35 38  1  0  0  0  0
 37105  1  0  0  0  0
 37106  1  0  0  0  0
 37107  1  0  0  0  0
 38 39  1  0  0  0  0
 38108  1  0  0  0  0
 39 40  1  0  0  0  0
 39 42  1  0  0  0  0
 39109  1  1  0  0  0
 40 41  2  0  0  0  0
 40 49  1  0  0  0  0
 42 43  1  0  0  0  0
 42110  1  0  0  0  0
 42111  1  0  0  0  0
 43 44  1  0  0  0  0
 43112  1  0  0  0  0
 43113  1  0  0  0  0
 44 45  1  0  0  0  0
 44114  1  0  0  0  0
 44115  1  0  0  0  0
 45 46  1  0  0  0  0
 45116  1  0  0  0  0
 46 47  1  0  0  0  0
 46 48  1  0  0  0  0
 47117  1  0  0  0  0
 47118  1  0  0  0  0
 48119  1  0  0  0  0
 48120  1  0  0  0  0
 49 50  1  0  0  0  0
 49121  1  0  0  0  0
 50 51  1  0  0  0  0
 50 57  1  0  0  0  0
 50122  1  6  0  0  0
 51 52  1  0  0  0  0
 51123  1  0  0  0  0
 51124  1  0  0  0  0
 52 53  1  0  0  0  0
 52125  1  0  0  0  0
 52126  1  0  0  0  0
 53 54  1  0  0  0  0
 53127  1  0  0  0  0
 53128  1  0  0  0  0
 54 55  1  0  0  0  0
 54129  1  0  0  0  0
 54130  1  0  0  0  0
 55 56  1  0  0  0  0
 55131  1  0  0  0  0
 55132  1  0  0  0  0
 56133  1  0  0  0  0
 56134  1  0  0  0  0
 56135  1  0  0  0  0
 57 58  2  0  0  0  0
 57 59  1  0  0  0  0
 59 60  1  0  0  0  0
 59136  1  0  0  0  0
 60 61  1  0  0  0  0
 60 63  1  0  0  0  0
 60137  1  6  0  0  0
 61 62  1  0  0  0  0
 61 65  2  0  0  0  0
 63 64  1  0  0  0  0
 63138  1  0  0  0  0
 63139  1  0  0  0  0
 64140  1  0  0  0  0
M  CHG  4   1   1  16   1  55   1  62  -1
M  END
