4ivt_ligand
 OpenBabel08222323353D

 49 51  0  0  1  0  0  0  0  0999 V2000
   17.7490   19.3990   -2.2120 C   0  0  0  0  0  0  0  0  0  0  0  0
   18.3920   20.5430   -1.4180 C   0  0  0  0  0  0  0  0  0  0  0  0
   19.5790   20.5930   -1.1950 O   0  0  0  0  0  0  0  0  0  0  0  0
   17.5450   21.5880   -0.9140 N   0  0  0  0  0  0  0  0  0  0  0  0
   18.0730   22.7290   -0.1510 C   0  0  0  0  0  0  0  0  0  0  0  0
   18.0150   22.7490    1.2390 C   0  0  0  0  0  0  0  0  0  0  0  0
   18.4940   23.8390    1.9410 C   0  0  0  0  0  0  0  0  0  0  0  0
   17.3940   21.4190    2.0150 Cl  0  0  0  0  0  0  0  0  0  0  0  0
   18.6020   23.8030   -0.8090 C   0  0  0  0  0  0  0  0  0  0  0  0
   18.6870   23.7790   -2.5580 Cl  0  0  0  0  0  0  0  0  0  0  0  0
   19.0830   24.8880   -0.1430 C   0  0  0  0  0  0  0  0  0  0  0  0
   19.0110   24.9220    1.2450 C   0  0  0  0  0  0  0  0  0  0  0  0
   19.6080   26.1770    1.9660 C   0  0  0  0  0  0  0  0  0  0  0  0
   21.0400   25.9830    1.9610 N   0  0  0  0  0  0  0  0  0  0  0  0
   21.8280   26.0570    3.1310 C   0  0  2  0  0  3  0  0  0  0  0  0
   21.3250   26.3430    4.3040 N   0  0  0  0  0  0  0  0  0  0  0  0
   23.2430   25.8250    3.0630 N   0  0  0  0  0  0  0  0  0  0  0  0
   23.9070   25.5050    1.8520 C   0  0  0  0  0  0  0  0  0  0  0  0
   23.3080   25.4160    0.8030 O   0  0  0  0  0  0  0  0  0  0  0  0
   25.4120   25.2880    1.9690 C   0  0  0  0  0  0  0  0  0  0  0  0
   26.1090   25.2340    0.7790 N   0  0  0  0  0  0  0  0  0  0  0  0
   26.1460   24.1160   -0.0450 C   0  0  0  0  0  0  0  0  0  0  0  0
   25.5440   22.8360    0.0900 C   0  0  0  0  0  0  0  0  0  0  0  0
   25.7560   21.8430   -0.9300 C   0  0  0  0  0  0  0  0  0  0  0  0
   26.5290   22.1470   -2.0250 C   0  0  0  0  0  0  0  0  0  0  0  0
   27.1190   23.4210   -2.1520 C   0  0  0  0  0  0  0  0  0  0  0  0
   26.9100   24.4150   -1.1290 C   0  0  0  0  0  0  0  0  0  0  0  0
   27.3580   25.7870   -0.9540 C   0  0  0  0  0  0  0  0  0  0  0  0
   26.8220   26.2340    0.2530 C   0  0  0  0  0  0  0  0  0  0  0  0
   16.6646   19.5683   -2.2861 H   0  0  0  0  0  0  0  0  0  0  0  0
   17.9368   18.4449   -1.6978 H   0  0  0  0  0  0  0  0  0  0  0  0
   18.1843   19.3633   -3.2215 H   0  0  0  0  0  0  0  0  0  0  0  0
   16.5615   21.5379   -1.0881 H   0  0  0  0  0  0  0  0  0  0  0  0
   18.4660   23.8476    3.0246 H   0  0  0  0  0  0  0  0  0  0  0  0
   19.5178   25.7173   -0.6892 H   0  0  0  0  0  0  0  0  0  0  0  0
   19.2329   26.2417    2.9980 H   0  0  0  0  0  0  0  0  0  0  0  0
   19.3430   27.0952    1.4213 H   0  0  0  0  0  0  0  0  0  0  0  0
   21.5065   25.7819    1.0650 H   0  0  0  0  0  0  0  0  0  0  0  0
   21.9380   26.3861    5.1306 H   0  0  0  0  0  0  0  0  0  0  0  0
   20.3159   26.5252    4.4011 H   0  0  0  0  0  0  0  0  0  0  0  0
   23.7816   25.8917    3.9029 H   0  0  0  0  0  0  0  0  0  0  0  0
   25.5750   24.3375    2.4981 H   0  0  0  0  0  0  0  0  0  0  0  0
   25.8262   26.1149    2.5645 H   0  0  0  0  0  0  0  0  0  0  0  0
   24.9301   22.6093    0.9542 H   0  0  0  0  0  0  0  0  0  0  0  0
   25.3083   20.8603   -0.8351 H   0  0  0  0  0  0  0  0  0  0  0  0
   26.6861   21.4018   -2.7964 H   0  0  0  0  0  0  0  0  0  0  0  0
   27.7289   23.6529   -3.0176 H   0  0  0  0  0  0  0  0  0  0  0  0
   27.9902   26.3557   -1.6343 H   0  0  0  0  0  0  0  0  0  0  0  0
   26.9599   27.2222    0.6893 H   0  0  0  0  0  0  0  0  0  0  0  0
  1  2  1  0  0  0  0
  1 30  1  0  0  0  0
  1 31  1  0  0  0  0
  1 32  1  0  0  0  0
  2  3  2  0  0  0  0
  2  4  1  0  0  0  0
  4  5  1  0  0  0  0
  4 33  1  0  0  0  0
  5  6  2  0  0  0  0
  5  9  1  0  0  0  0
  6  7  1  0  0  0  0
  6  8  1  0  0  0  0
  7 12  2  0  0  0  0
  7 34  1  0  0  0  0
  9 10  1  0  0  0  0
  9 11  2  0  0  0  0
 11 12  1  0  0  0  0
 11 35  1  0  0  0  0
 12 13  1  0  0  0  0
 13 14  1  0  0  0  0
 13 36  1  0  0  0  0
 13 37  1  0  0  0  0
 14 38  1  0  0  0  0
 15 14  1  6  0  0  0
 15 16  1  0  0  0  0
 15 17  1  0  0  0  0
 16 39  1  0  0  0  0
 16 40  1  0  0  0  0
 17 18  1  0  0  0  0
 17 41  1  0  0  0  0
 18 19  2  0  0  0  0
 18 20  1  0  0  0  0
 20 21  1  0  0  0  0
 20 42  1  0  0  0  0
 20 43  1  0  0  0  0
 21 22  1  0  0  0  0
 21 29  1  0  0  0  0
 22 23  2  0  0  0  0
 22 27  1  0  0  0  0
 23 24  1  0  0  0  0
 23 44  1  0  0  0  0
 24 25  2  0  0  0  0
 24 45  1  0  0  0  0
 25 26  1  0  0  0  0
 25 46  1  0  0  0  0
 26 27  2  0  0  0  0
 26 47  1  0  0  0  0
 27 28  1  0  0  0  0
 28 29  2  0  0  0  0
 28 48  1  0  0  0  0
 29 49  1  0  0  0  0
M  END
