4iwd_ligand
 OpenBabel08222323353D

 68 73  0  0  0  0  0  0  0  0999 V2000
   -3.5650   -8.5290  -16.5910 C   0  0  0  0  0  0  0  0  0  0  0  0
   -4.6650   -9.2760  -17.0390 C   0  0  0  0  0  0  0  0  0  0  0  0
   -5.9120   -9.1320  -16.4790 N   0  0  0  0  0  0  0  0  0  0  0  0
   -6.0960   -8.2430  -15.4640 C   0  0  0  0  0  0  0  0  0  0  0  0
   -5.0510   -7.4750  -14.9340 C   0  0  0  0  0  0  0  0  0  0  0  0
   -3.8130   -7.6680  -15.5330 C   0  0  0  0  0  0  0  0  0  0  0  0
   -7.4570   -8.2120  -15.0570 C   0  0  0  0  0  0  0  0  0  0  0  0
   -8.0200   -7.1690  -14.2730 C   0  0  0  0  0  0  0  0  0  0  0  0
   -7.4990   -5.9920  -13.6890 C   0  0  0  0  0  0  0  0  0  0  0  0
   -6.1640   -5.6980  -13.4680 C   0  0  0  0  0  0  0  0  0  0  0  0
   -5.0640   -6.5170  -13.8250 C   0  0  0  0  0  0  0  0  0  0  0  0
   -8.4030   -4.9850  -13.2880 C   0  0  0  0  0  0  0  0  0  0  0  0
   -8.0220   -3.7610  -12.7060 C   0  0  0  0  0  0  0  0  0  0  0  0
   -6.6710   -3.4940  -12.4820 C   0  0  0  0  0  0  0  0  0  0  0  0
   -5.7900   -4.4600  -12.8720 C   0  0  0  0  0  0  0  0  0  0  0  0
   -6.1270   -2.2150  -11.8610 C   0  0  0  0  0  0  0  0  0  0  0  0
   -5.6840   -1.2620  -13.3020 S   0  0  0  0  0  0  0  0  0  0  0  0
   -5.3610    0.2600  -12.6410 N   0  0  0  0  0  0  0  0  0  0  0  0
   -3.9820   -6.3010  -13.1980 O   0  0  0  0  0  0  0  0  0  0  0  0
   -4.3020   -1.8620  -13.8580 O   0  0  0  0  0  0  0  0  0  0  0  0
   -6.9290   -1.1650  -14.2870 O   0  0  0  0  0  0  0  0  0  0  0  0
   -2.2150   -8.6270  -17.1880 C   0  0  0  0  0  0  0  0  0  0  0  0
   -1.9830   -9.2190  -18.4010 C   0  0  0  0  0  0  0  0  0  0  0  0
   -0.6430   -9.1380  -18.6360 N   0  0  0  0  0  0  0  0  0  0  0  0
    0.0080   -8.5080  -17.6650 N   0  0  0  0  0  0  0  0  0  0  0  0
   -0.9380   -8.2040  -16.7840 C   0  0  0  0  0  0  0  0  0  0  0  0
   -3.9460    0.5500  -12.2710 C   0  0  0  0  0  0  0  0  0  0  0  0
   -3.8700    1.3370  -10.9670 C   0  0  0  0  0  0  0  0  0  0  0  0
   -2.6670    1.8440  -10.6350 N   0  0  0  0  0  0  0  0  0  0  0  0
   -2.4990    2.5910   -9.4780 C   0  0  0  0  0  0  0  0  0  0  0  0
   -3.5570    2.8110   -8.6070 C   0  0  0  0  0  0  0  0  0  0  0  0
   -4.8320    2.2720   -8.9460 C   0  0  0  0  0  0  0  0  0  0  0  0
   -4.9880    1.5400  -10.1170 C   0  0  0  0  0  0  0  0  0  0  0  0
    0.0800   -9.6380  -19.8260 C   0  0  0  0  0  0  0  0  0  0  0  0
    1.1180  -10.6950  -19.3630 C   0  0  0  0  0  0  0  0  0  0  0  0
    2.2010  -11.0330  -20.4050 C   0  0  0  0  0  0  0  0  0  0  0  0
    2.7680   -9.8420  -21.1120 N   0  3  0  0  0  0  0  0  0  0  0  0
    1.8690   -8.6880  -21.4790 C   0  0  0  0  0  0  0  0  0  0  0  0
    0.7910   -8.3730  -20.4490 C   0  0  0  0  0  0  0  0  0  0  0  0
   -4.5279   -9.9849  -17.8475 H   0  0  0  0  0  0  0  0  0  0  0  0
   -2.9753   -7.1013  -15.1429 H   0  0  0  0  0  0  0  0  0  0  0  0
   -8.1043   -9.0327  -15.3627 H   0  0  0  0  0  0  0  0  0  0  0  0
   -9.0830   -7.3063  -14.0805 H   0  0  0  0  0  0  0  0  0  0  0  0
   -9.4612   -5.1661  -13.4381 H   0  0  0  0  0  0  0  0  0  0  0  0
   -8.7744   -3.0298  -12.4333 H   0  0  0  0  0  0  0  0  0  0  0  0
   -4.7336   -4.2723  -12.7177 H   0  0  0  0  0  0  0  0  0  0  0  0
   -5.2485   -2.4188  -11.2312 H   0  0  0  0  0  0  0  0  0  0  0  0
   -6.8955   -1.7025  -11.2637 H   0  0  0  0  0  0  0  0  0  0  0  0
   -6.0859    0.9351  -12.5044 H   0  0  0  0  0  0  0  0  0  0  0  0
   -2.7286   -9.6695  -19.0545 H   0  0  0  0  0  0  0  0  0  0  0  0
   -0.7443   -7.6823  -15.8479 H   0  0  0  0  0  0  0  0  0  0  0  0
   -3.4781    1.1388  -13.0737 H   0  0  0  0  0  0  0  0  0  0  0  0
   -3.4045   -0.3997  -12.1495 H   0  0  0  0  0  0  0  0  0  0  0  0
   -1.5254    3.0097   -9.2505 H   0  0  0  0  0  0  0  0  0  0  0  0
   -3.4173    3.3776   -7.6935 H   0  0  0  0  0  0  0  0  0  0  0  0
   -5.6802    2.4330   -8.2904 H   0  0  0  0  0  0  0  0  0  0  0  0
   -5.9557    1.1276  -10.3789 H   0  0  0  0  0  0  0  0  0  0  0  0
   -0.6143  -10.0868  -20.5516 H   0  0  0  0  0  0  0  0  0  0  0  0
    0.5778  -11.6212  -19.1176 H   0  0  0  0  0  0  0  0  0  0  0  0
    1.6180  -10.3121  -18.4611 H   0  0  0  0  0  0  0  0  0  0  0  0
    1.7582  -11.7019  -21.1577 H   0  0  0  0  0  0  0  0  0  0  0  0
    3.0233  -11.5524  -19.8912 H   0  0  0  0  0  0  0  0  0  0  0  0
    3.1750  -10.1789  -21.9704 H   0  0  0  0  0  0  0  0  0  0  0  0
    3.4935   -9.4694  -20.5197 H   0  0  0  0  0  0  0  0  0  0  0  0
    1.3740   -8.9278  -22.4316 H   0  0  0  0  0  0  0  0  0  0  0  0
    2.4946   -7.7922  -21.6061 H   0  0  0  0  0  0  0  0  0  0  0  0
    1.2558   -7.8040  -19.6304 H   0  0  0  0  0  0  0  0  0  0  0  0
    0.0230   -7.7540  -20.9359 H   0  0  0  0  0  0  0  0  0  0  0  0
  1  2  2  0  0  0  0
  1  6  1  0  0  0  0
  1 22  1  0  0  0  0
  2  3  1  0  0  0  0
  2 40  1  0  0  0  0
  3  4  2  0  0  0  0
  4  5  1  0  0  0  0
  4  7  1  0  0  0  0
  5  6  2  0  0  0  0
  5 11  1  0  0  0  0
  6 41  1  0  0  0  0
  7  8  2  0  0  0  0
  7 42  1  0  0  0  0
  8  9  1  0  0  0  0
  8 43  1  0  0  0  0
  9 10  2  0  0  0  0
  9 12  1  0  0  0  0
 10 11  1  0  0  0  0
 10 15  1  0  0  0  0
 11 19  2  0  0  0  0
 12 13  2  0  0  0  0
 12 44  1  0  0  0  0
 13 14  1  0  0  0  0
 13 45  1  0  0  0  0
 14 15  2  0  0  0  0
 14 16  1  0  0  0  0
 15 46  1  0  0  0  0
 16 17  1  0  0  0  0
 16 47  1  0  0  0  0
 16 48  1  0  0  0  0
 17 18  1  0  0  0  0
 17 20  2  0  0  0  0
 17 21  2  0  0  0  0
 18 27  1  0  0  0  0
 18 49  1  0  0  0  0
 22 23  2  0  0  0  0
 22 26  1  0  0  0  0
 23 24  1  0  0  0  0
 23 50  1  0  0  0  0
 24 25  1  0  0  0  0
 24 34  1  0  0  0  0
 25 26  2  0  0  0  0
 26 51  1  0  0  0  0
 27 28  1  0  0  0  0
 27 52  1  0  0  0  0
 27 53  1  0  0  0  0
 28 29  2  0  0  0  0
 28 33  1  0  0  0  0
 29 30  1  0  0  0  0
 30 31  2  0  0  0  0
 30 54  1  0  0  0  0
 31 32  1  0  0  0  0
 31 55  1  0  0  0  0
 32 33  2  0  0  0  0
 32 56  1  0  0  0  0
 33 57  1  0  0  0  0
 34 35  1  0  0  0  0
 34 39  1  0  0  0  0
 34 58  1  0  0  0  0
 35 36  1  0  0  0  0
 35 59  1  0  0  0  0
 35 60  1  0  0  0  0
 36 37  1  0  0  0  0
 36 61  1  0  0  0  0
 36 62  1  0  0  0  0
 37 38  1  0  0  0  0
 37 63  1  0  0  0  0
 37 64  1  0  0  0  0
 38 39  1  0  0  0  0
 38 65  1  0  0  0  0
 38 66  1  0  0  0  0
 39 67  1  0  0  0  0
 39 68  1  0  0  0  0
M  CHG  1  37   1
M  END
