4ixh_ligand
 OpenBabel08222323353D

 50 54  0  0  1  0  0  0  0  0999 V2000
   18.0730  -24.8320   12.7250 O   0  0  0  0  0  0  0  0  0  0  0  0
   18.1760  -24.2280   11.6700 C   0  0  0  0  0  0  0  0  0  0  0  0
   17.0990  -24.3990   10.6380 C   0  0  2  0  0  0  0  0  0  0  0  0
   15.9150  -23.5140   11.0030 C   0  0  0  0  0  0  0  0  0  0  0  0
   16.6620  -25.7590   10.6190 O   0  0  0  0  0  0  0  0  0  0  0  0
   17.4130  -26.7340   10.0130 C   0  0  0  0  0  0  0  0  0  0  0  0
   18.4890  -26.4050    9.1940 C   0  0  0  0  0  0  0  0  0  0  0  0
   19.2460  -27.4080    8.6000 C   0  0  0  0  0  0  0  0  0  0  0  0
   18.9290  -28.7450    8.8290 C   0  0  0  0  0  0  0  0  0  0  0  0
   17.0960  -28.0650   10.2350 C   0  0  0  0  0  0  0  0  0  0  0  0
   16.0190  -28.3840   11.0550 C   0  0  0  0  0  0  0  0  0  0  0  0
   15.7030  -29.7210   11.2750 C   0  0  0  0  0  0  0  0  0  0  0  0
   16.4540  -30.7290   10.6790 C   0  0  0  0  0  0  0  0  0  0  0  0
   17.5320  -30.4110    9.8640 C   0  0  0  0  0  0  0  0  0  0  0  0
   17.8500  -29.0750    9.6410 C   0  0  0  0  0  0  0  0  0  0  0  0
   19.1830  -23.4060   11.3350 N   0  0  0  0  0  0  0  0  0  0  0  0
   20.2720  -23.0920   12.0910 C   0  0  0  0  0  0  0  0  0  0  0  0
   21.2360  -22.2830   11.4940 C   0  0  0  0  0  0  0  0  0  0  0  0
   22.3910  -21.8980   12.1720 C   0  0  0  0  0  0  0  0  0  0  0  0
   22.5560  -22.3460   13.4720 C   0  0  0  0  0  0  0  0  0  0  0  0
   21.6210  -23.1510   14.0870 C   0  0  0  0  0  0  0  0  0  0  0  0
   20.4670  -23.5350   13.4110 C   0  0  0  0  0  0  0  0  0  0  0  0
   23.5750  -22.0880   14.2650 O   0  0  0  0  0  0  0  0  0  0  0  0
   23.3390  -22.7260   15.4590 C   0  0  0  0  0  0  0  0  0  0  0  0
   22.1380  -23.3700   15.3260 N   0  0  0  0  0  0  0  0  0  0  0  0
   24.1450  -22.7290   16.5950 C   0  0  0  0  0  0  0  0  0  0  0  0
   23.7420  -23.4440   17.7250 C   0  0  0  0  0  0  0  0  0  0  0  0
   24.5510  -23.4460   18.8580 C   0  0  0  0  0  0  0  0  0  0  0  0
   25.7060  -22.7670   18.8640 N   0  0  0  0  0  0  0  0  0  0  0  0
   26.1140  -22.0740   17.7860 C   0  0  0  0  0  0  0  0  0  0  0  0
   25.3520  -22.0360   16.6210 C   0  0  0  0  0  0  0  0  0  0  0  0
   17.4861  -24.1179    9.6475 H   0  0  0  0  0  0  0  0  0  0  0  0
   15.1216  -23.6343   10.2506 H   0  0  0  0  0  0  0  0  0  0  0  0
   16.2377  -22.4628   11.0306 H   0  0  0  0  0  0  0  0  0  0  0  0
   15.5302  -23.8055   11.9914 H   0  0  0  0  0  0  0  0  0  0  0  0
   18.7372  -25.3644    9.0190 H   0  0  0  0  0  0  0  0  0  0  0  0
   20.0817  -27.1502    7.9596 H   0  0  0  0  0  0  0  0  0  0  0  0
   19.5240  -29.5285    8.3738 H   0  0  0  0  0  0  0  0  0  0  0  0
   15.4318  -27.5991   11.5179 H   0  0  0  0  0  0  0  0  0  0  0  0
   14.8666  -29.9788   11.9146 H   0  0  0  0  0  0  0  0  0  0  0  0
   16.1963  -31.7677   10.8518 H   0  0  0  0  0  0  0  0  0  0  0  0
   18.1210  -31.1970    9.4053 H   0  0  0  0  0  0  0  0  0  0  0  0
   19.1279  -22.9778   10.4330 H   0  0  0  0  0  0  0  0  0  0  0  0
   21.0838  -21.9441   10.4756 H   0  0  0  0  0  0  0  0  0  0  0  0
   23.1355  -21.2688   11.6977 H   0  0  0  0  0  0  0  0  0  0  0  0
   19.7299  -24.1658   13.8945 H   0  0  0  0  0  0  0  0  0  0  0  0
   22.8072  -23.9928   17.7199 H   0  0  0  0  0  0  0  0  0  0  0  0
   24.2453  -23.9991   19.7387 H   0  0  0  0  0  0  0  0  0  0  0  0
   27.0536  -21.5349   17.8247 H   0  0  0  0  0  0  0  0  0  0  0  0
   25.6909  -21.4797   15.7545 H   0  0  0  0  0  0  0  0  0  0  0  0
  1  2  2  0  0  0  0
  2  3  1  0  0  0  0
  2 16  1  0  0  0  0
  3  4  1  0  0  0  0
  3  5  1  0  0  0  0
  3 32  1  6  0  0  0
  4 33  1  0  0  0  0
  4 34  1  0  0  0  0
  4 35  1  0  0  0  0
  5  6  1  0  0  0  0
  6  7  2  0  0  0  0
  6 10  1  0  0  0  0
  7  8  1  0  0  0  0
  7 36  1  0  0  0  0
  8  9  2  0  0  0  0
  8 37  1  0  0  0  0
  9 15  1  0  0  0  0
  9 38  1  0  0  0  0
 10 11  2  0  0  0  0
 10 15  1  0  0  0  0
 11 12  1  0  0  0  0
 11 39  1  0  0  0  0
 12 13  2  0  0  0  0
 12 40  1  0  0  0  0
 13 14  1  0  0  0  0
 13 41  1  0  0  0  0
 14 15  2  0  0  0  0
 14 42  1  0  0  0  0
 16 17  1  0  0  0  0
 16 43  1  0  0  0  0
 17 18  2  0  0  0  0
 17 22  1  0  0  0  0
 18 19  1  0  0  0  0
 18 44  1  0  0  0  0
 19 20  2  0  0  0  0
 19 45  1  0  0  0  0
 20 21  1  0  0  0  0
 20 23  1  0  0  0  0
 21 22  2  0  0  0  0
 21 25  1  0  0  0  0
 22 46  1  0  0  0  0
 23 24  1  0  0  0  0
 24 25  2  0  0  0  0
 24 26  1  0  0  0  0
 26 27  2  0  0  0  0
 26 31  1  0  0  0  0
 27 28  1  0  0  0  0
 27 47  1  0  0  0  0
 28 29  2  0  0  0  0
 28 48  1  0  0  0  0
 29 30  1  0  0  0  0
 30 31  2  0  0  0  0
 30 49  1  0  0  0  0
 31 50  1  0  0  0  0
M  END
