4j08_ligand
 OpenBabel08222323353D

 43 45  0  0  0  0  0  0  0  0999 V2000
  -27.6580   48.8680   55.8320 C   0  0  0  0  0  0  0  0  0  0  0  0
  -28.0590   48.8810   54.4670 C   0  0  0  0  0  0  0  0  0  0  0  0
  -27.8930   50.0510   53.6660 C   0  0  0  0  0  0  0  0  0  0  0  0
  -27.3060   51.2210   54.2500 C   0  0  0  0  0  0  0  0  0  0  0  0
  -26.9000   51.2180   55.6190 C   0  0  0  0  0  0  0  0  0  0  0  0
  -27.0770   50.0330   56.4030 C   0  0  0  0  0  0  0  0  0  0  0  0
  -26.5850   50.0120   58.1270 S   0  0  0  0  0  0  0  0  0  0  0  0
  -26.4910   51.4050   58.5560 O   0  0  0  0  0  0  0  0  0  0  0  0
  -27.5780   49.1630   58.7850 O   0  0  0  0  0  0  0  0  0  0  0  0
  -25.0570   49.1760   58.1960 N   0  0  0  0  0  0  0  0  0  0  0  0
  -23.8400   49.7330   57.5790 C   0  0  0  0  0  0  0  0  0  0  0  0
  -22.9880   48.9270   56.7230 C   0  0  0  0  0  0  0  0  0  0  0  0
  -21.8250   49.5050   56.1420 C   0  0  0  0  0  0  0  0  0  0  0  0
  -21.4730   50.8570   56.3860 C   0  0  0  0  0  0  0  0  0  0  0  0
  -22.3080   51.6470   57.2370 C   0  0  0  0  0  0  0  0  0  0  0  0
  -23.4760   51.0890   57.8240 C   0  0  0  0  0  0  0  0  0  0  0  0
  -23.3250   47.5320   56.4600 C   0  0  0  0  0  0  0  0  0  0  0  0
  -22.3270   46.8260   55.8740 O   0  5  0  0  0  0  0  0  0  0  0  0
  -24.4000   47.0270   56.7470 O   0  0  0  0  0  0  0  0  0  0  0  0
  -20.3080   51.2410   55.7410 O   0  0  0  0  0  0  0  0  0  0  0  0
  -20.4490   52.3520   54.7950 C   0  0  0  0  0  0  0  0  0  0  0  0
  -21.6420   52.5330   53.9860 C   0  0  0  0  0  0  0  0  0  0  0  0
  -21.7280   53.6320   53.0700 C   0  0  0  0  0  0  0  0  0  0  0  0
  -20.6260   54.5590   52.9500 C   0  0  0  0  0  0  0  0  0  0  0  0
  -19.4410   54.3860   53.7480 C   0  0  0  0  0  0  0  0  0  0  0  0
  -19.3530   53.2870   54.6670 C   0  0  0  0  0  0  0  0  0  0  0  0
  -28.3260   50.0470   52.2250 C   0  0  0  0  0  0  0  0  0  0  0  0
  -27.7946   47.9759   56.4325 H   0  0  0  0  0  0  0  0  0  0  0  0
  -28.4963   47.9908   54.0295 H   0  0  0  0  0  0  0  0  0  0  0  0
  -27.1696   52.1129   53.6492 H   0  0  0  0  0  0  0  0  0  0  0  0
  -26.4615   52.1054   56.0610 H   0  0  0  0  0  0  0  0  0  0  0  0
  -25.0048   48.2952   58.6667 H   0  0  0  0  0  0  0  0  0  0  0  0
  -21.1953   48.8998   55.4999 H   0  0  0  0  0  0  0  0  0  0  0  0
  -22.0478   52.6803   57.4360 H   0  0  0  0  0  0  0  0  0  0  0  0
  -24.0977   51.7024   58.4660 H   0  0  0  0  0  0  0  0  0  0  0  0
  -22.4677   51.8364   54.0752 H   0  0  0  0  0  0  0  0  0  0  0  0
  -22.6190   53.7677   52.4677 H   0  0  0  0  0  0  0  0  0  0  0  0
  -20.6923   55.3887   52.2555 H   0  0  0  0  0  0  0  0  0  0  0  0
  -18.6168   55.0840   53.6553 H   0  0  0  0  0  0  0  0  0  0  0  0
  -18.4604   53.1571   55.2683 H   0  0  0  0  0  0  0  0  0  0  0  0
  -28.7483   49.0634   51.9718 H   0  0  0  0  0  0  0  0  0  0  0  0
  -27.4579   50.2502   51.5807 H   0  0  0  0  0  0  0  0  0  0  0  0
  -29.0884   50.8244   52.0690 H   0  0  0  0  0  0  0  0  0  0  0  0
  1  2  2  0  0  0  0
  1  6  1  0  0  0  0
  1 28  1  0  0  0  0
  2  3  1  0  0  0  0
  2 29  1  0  0  0  0
  3  4  2  0  0  0  0
  3 27  1  0  0  0  0
  4  5  1  0  0  0  0
  4 30  1  0  0  0  0
  5  6  2  0  0  0  0
  5 31  1  0  0  0  0
  6  7  1  0  0  0  0
  7  8  2  0  0  0  0
  7  9  2  0  0  0  0
  7 10  1  0  0  0  0
 10 11  1  0  0  0  0
 10 32  1  0  0  0  0
 11 12  2  0  0  0  0
 11 16  1  0  0  0  0
 12 13  1  0  0  0  0
 12 17  1  0  0  0  0
 13 14  2  0  0  0  0
 13 33  1  0  0  0  0
 14 15  1  0  0  0  0
 14 20  1  0  0  0  0
 15 16  2  0  0  0  0
 15 34  1  0  0  0  0
 16 35  1  0  0  0  0
 17 18  1  0  0  0  0
 17 19  2  0  0  0  0
 20 21  1  0  0  0  0
 21 22  2  0  0  0  0
 21 26  1  0  0  0  0
 22 23  1  0  0  0  0
 22 36  1  0  0  0  0
 23 24  2  0  0  0  0
 23 37  1  0  0  0  0
 24 25  1  0  0  0  0
 24 38  1  0  0  0  0
 25 26  2  0  0  0  0
 25 39  1  0  0  0  0
 26 40  1  0  0  0  0
 27 41  1  0  0  0  0
 27 42  1  0  0  0  0
 27 43  1  0  0  0  0
M  CHG  1  18  -1
M  END
