4j0a_ligand
 OpenBabel08222323353D

 43 45  0  0  0  0  0  0  0  0999 V2000
  -27.0390   51.5330   55.3480 C   0  0  0  0  0  0  0  0  0  0  0  0
  -27.4290   51.5530   53.9920 C   0  0  0  0  0  0  0  0  0  0  0  0
  -28.0330   50.4010   53.4050 C   0  0  0  0  0  0  0  0  0  0  0  0
  -28.2410   49.2310   54.1960 C   0  0  0  0  0  0  0  0  0  0  0  0
  -27.8520   49.2040   55.5530 C   0  0  0  0  0  0  0  0  0  0  0  0
  -27.2520   50.3570   56.1200 C   0  0  0  0  0  0  0  0  0  0  0  0
  -26.7580   50.3300   57.8220 S   0  0  0  0  0  0  0  0  0  0  0  0
  -27.6760   49.4200   58.5190 O   0  0  0  0  0  0  0  0  0  0  0  0
  -26.7310   51.7400   58.2510 O   0  0  0  0  0  0  0  0  0  0  0  0
  -25.1180   49.6480   57.8580 N   0  0  0  0  0  0  0  0  0  0  0  0
  -23.9870   50.0440   56.9620 C   0  0  0  0  0  0  0  0  0  0  0  0
  -23.1540   49.0270   56.3330 C   0  0  0  0  0  0  0  0  0  0  0  0
  -22.0730   49.3970   55.4850 C   0  0  0  0  0  0  0  0  0  0  0  0
  -21.7800   50.7380   55.2390 C   0  0  0  0  0  0  0  0  0  0  0  0
  -22.5660   51.7600   55.8330 C   0  0  0  0  0  0  0  0  0  0  0  0
  -23.6720   51.4230   56.6990 C   0  0  0  0  0  0  0  0  0  0  0  0
  -23.4020   47.6080   56.5530 C   0  0  0  0  0  0  0  0  0  0  0  0
  -24.5110   47.1080   56.7170 O   0  5  0  0  0  0  0  0  0  0  0  0
  -22.2700   46.8620   56.5490 O   0  0  0  0  0  0  0  0  0  0  0  0
  -22.2990   53.1140   55.6150 O   0  0  0  0  0  0  0  0  0  0  0  0
  -21.4740   53.5660   54.5420 C   0  0  0  0  0  0  0  0  0  0  0  0
  -21.9560   53.8540   53.2270 C   0  0  0  0  0  0  0  0  0  0  0  0
  -21.0530   54.3030   52.2190 C   0  0  0  0  0  0  0  0  0  0  0  0
  -19.6660   54.4650   52.5090 C   0  0  0  0  0  0  0  0  0  0  0  0
  -19.1780   54.1850   53.8110 C   0  0  0  0  0  0  0  0  0  0  0  0
  -20.0730   53.7350   54.8280 C   0  0  0  0  0  0  0  0  0  0  0  0
  -28.4440   50.4270   51.9720 C   0  0  0  0  0  0  0  0  0  0  0  0
  -26.5809   52.4064   55.7978 H   0  0  0  0  0  0  0  0  0  0  0  0
  -27.2697   52.4442   53.3957 H   0  0  0  0  0  0  0  0  0  0  0  0
  -28.7013   48.3562   53.7512 H   0  0  0  0  0  0  0  0  0  0  0  0
  -28.0097   48.3148   56.1527 H   0  0  0  0  0  0  0  0  0  0  0  0
  -24.9346   48.9369   58.5368 H   0  0  0  0  0  0  0  0  0  0  0  0
  -21.4682   48.6249   55.0233 H   0  0  0  0  0  0  0  0  0  0  0  0
  -20.9502   51.0006   54.5928 H   0  0  0  0  0  0  0  0  0  0  0  0
  -24.2651   52.2097   57.1511 H   0  0  0  0  0  0  0  0  0  0  0  0
  -23.0080   53.7310   52.9964 H   0  0  0  0  0  0  0  0  0  0  0  0
  -21.4236   54.5230   51.2244 H   0  0  0  0  0  0  0  0  0  0  0  0
  -18.9856   54.8017   51.7352 H   0  0  0  0  0  0  0  0  0  0  0  0
  -18.1249   54.3128   54.0339 H   0  0  0  0  0  0  0  0  0  0  0  0
  -19.6958   53.5193   55.8211 H   0  0  0  0  0  0  0  0  0  0  0  0
  -28.2018   51.4087   51.5389 H   0  0  0  0  0  0  0  0  0  0  0  0
  -29.5273   50.2508   51.8980 H   0  0  0  0  0  0  0  0  0  0  0  0
  -27.9062   49.6408   51.4219 H   0  0  0  0  0  0  0  0  0  0  0  0
  1  2  2  0  0  0  0
  1  6  1  0  0  0  0
  1 28  1  0  0  0  0
  2  3  1  0  0  0  0
  2 29  1  0  0  0  0
  3  4  2  0  0  0  0
  3 27  1  0  0  0  0
  4  5  1  0  0  0  0
  4 30  1  0  0  0  0
  5  6  2  0  0  0  0
  5 31  1  0  0  0  0
  6  7  1  0  0  0  0
  7  8  2  0  0  0  0
  7  9  2  0  0  0  0
  7 10  1  0  0  0  0
 10 11  1  0  0  0  0
 10 32  1  0  0  0  0
 11 12  2  0  0  0  0
 11 16  1  0  0  0  0
 12 13  1  0  0  0  0
 12 17  1  0  0  0  0
 13 14  2  0  0  0  0
 13 33  1  0  0  0  0
 14 15  1  0  0  0  0
 14 34  1  0  0  0  0
 15 16  2  0  0  0  0
 15 20  1  0  0  0  0
 16 35  1  0  0  0  0
 17 18  1  0  0  0  0
 17 19  2  0  0  0  0
 20 21  1  0  0  0  0
 21 22  2  0  0  0  0
 21 26  1  0  0  0  0
 22 23  1  0  0  0  0
 22 36  1  0  0  0  0
 23 24  2  0  0  0  0
 23 37  1  0  0  0  0
 24 25  1  0  0  0  0
 24 38  1  0  0  0  0
 25 26  2  0  0  0  0
 25 39  1  0  0  0  0
 26 40  1  0  0  0  0
 27 41  1  0  0  0  0
 27 42  1  0  0  0  0
 27 43  1  0  0  0  0
M  CHG  1  18  -1
M  END
