4j0v_ligand
 OpenBabel08222323353D

 43 45  0  0  1  0  0  0  0  0999 V2000
  -22.1640  -43.3940   -2.2920 C   0  0  0  0  0  0  0  0  0  0  0  0
  -21.4190  -41.7720   -3.8720 C   0  0  0  0  0  0  0  0  0  0  0  0
  -20.0680  -42.0580   -1.9920 C   0  0  0  0  0  0  0  0  0  0  0  0
  -21.5220  -41.0930   -5.1770 C   0  0  0  0  0  0  0  0  0  0  0  0
  -20.7430  -43.6820   -0.2960 C   0  0  0  0  0  0  0  0  0  0  0  0
  -20.9580  -43.0410   -1.5460 C   0  0  0  0  0  0  0  0  0  0  0  0
  -22.3600  -42.7290   -3.4970 C   0  0  0  0  0  0  0  0  0  0  0  0
  -20.3580  -41.4630   -3.1370 N   0  0  0  0  0  0  0  0  0  0  0  0
  -20.3880  -40.4790   -5.6560 N   0  0  0  0  0  0  0  0  0  0  0  0
  -22.5690  -41.1630   -5.7800 O   0  0  0  0  0  0  0  0  0  0  0  0
  -20.5590  -44.1810    0.6800 N   0  0  0  0  0  0  0  0  0  0  0  0
  -20.1530  -39.8460   -6.9060 C   0  0  0  0  0  0  0  0  0  0  0  0
  -21.1730  -39.6050   -7.8160 C   0  0  0  0  0  0  0  0  0  0  0  0
  -20.8460  -39.1000   -9.0780 C   0  0  0  0  0  0  0  0  0  0  0  0
  -19.5040  -38.8020   -9.3670 C   0  0  0  0  0  0  0  0  0  0  0  0
  -18.4710  -39.0560   -8.4290 C   0  0  0  0  0  0  0  0  0  0  0  0
  -18.8220  -39.5760   -7.2040 C   0  0  0  0  0  0  0  0  0  0  0  0
  -16.9960  -38.7690   -8.7620 C   0  0  1  0  0  0  0  0  0  0  0  0
  -16.7710  -37.2920   -9.1470 C   0  0  0  0  0  0  0  0  0  0  0  0
  -16.4400  -41.2100   -9.2980 C   0  0  0  0  0  0  0  0  0  0  0  0
  -15.6350  -41.1310   -8.0860 O   0  0  0  0  0  0  0  0  0  0  0  0
  -15.4860  -40.0440   -7.3430 C   0  0  1  0  0  3  0  0  0  0  0  0
  -16.0800  -38.9190   -7.6070 N   0  0  0  0  0  0  0  0  0  0  0  0
  -14.6560  -40.1300   -6.2230 N   0  0  0  0  0  0  0  0  0  0  0  0
  -16.5480  -39.7710   -9.8360 C   0  0  2  0  0  0  0  0  0  0  0  0
  -15.2600  -39.4120  -10.2490 F   0  0  0  0  0  0  0  0  0  0  0  0
  -19.1870  -38.3220  -10.6080 F   0  0  0  0  0  0  0  0  0  0  0  0
  -22.8670  -44.1336   -1.9260 H   0  0  0  0  0  0  0  0  0  0  0  0
  -19.1818  -41.7962   -1.4253 H   0  0  0  0  0  0  0  0  0  0  0  0
  -23.2166  -42.9477   -4.1242 H   0  0  0  0  0  0  0  0  0  0  0  0
  -19.6097  -40.4781   -5.0281 H   0  0  0  0  0  0  0  0  0  0  0  0
  -22.2054  -39.8049   -7.5527 H   0  0  0  0  0  0  0  0  0  0  0  0
  -21.6172  -38.9407   -9.8230 H   0  0  0  0  0  0  0  0  0  0  0  0
  -18.0544  -39.7767   -6.4654 H   0  0  0  0  0  0  0  0  0  0  0  0
  -15.7073  -37.1309   -9.3764 H   0  0  0  0  0  0  0  0  0  0  0  0
  -17.0672  -36.6452   -8.3080 H   0  0  0  0  0  0  0  0  0  0  0  0
  -17.3780  -37.0469  -10.0310 H   0  0  0  0  0  0  0  0  0  0  0  0
  -17.4396  -41.6067   -9.0668 H   0  0  0  0  0  0  0  0  0  0  0  0
  -15.9505  -41.8586  -10.0394 H   0  0  0  0  0  0  0  0  0  0  0  0
  -15.9092  -38.1078   -6.9956 H   0  0  0  0  0  0  0  0  0  0  0  0
  -14.5157  -39.3058   -5.6214 H   0  0  0  0  0  0  0  0  0  0  0  0
  -14.1842  -41.0176   -5.9986 H   0  0  0  0  0  0  0  0  0  0  0  0
  -17.2513  -39.7410  -10.6812 H   0  0  0  0  0  0  0  0  0  0  0  0
  1  6  2  0  0  0  0
  1 28  1  0  0  0  0
  2  7  2  0  0  0  0
  2  8  1  0  0  0  0
  3  6  1  0  0  0  0
  3 29  1  0  0  0  0
  4  2  1  0  0  0  0
  4 10  2  0  0  0  0
  5 11  3  0  0  0  0
  6  5  1  0  0  0  0
  7  1  1  0  0  0  0
  7 30  1  0  0  0  0
  8  3  2  0  0  0  0
  9  4  1  0  0  0  0
  9 31  1  0  0  0  0
 12  9  1  0  0  0  0
 12 13  2  0  0  0  0
 13 32  1  0  0  0  0
 14 13  1  0  0  0  0
 14 33  1  0  0  0  0
 15 14  2  0  0  0  0
 15 27  1  0  0  0  0
 16 15  1  0  0  0  0
 16 17  2  0  0  0  0
 17 12  1  0  0  0  0
 17 34  1  0  0  0  0
 18 16  1  0  0  0  0
 18 19  1  6  0  0  0
 18 23  1  0  0  0  0
 19 35  1  0  0  0  0
 19 36  1  0  0  0  0
 19 37  1  0  0  0  0
 20 21  1  0  0  0  0
 20 25  1  0  0  0  0
 20 38  1  0  0  0  0
 20 39  1  0  0  0  0
 21 22  1  0  0  0  0
 22 23  1  0  0  0  0
 22 24  1  1  0  0  0
 23 40  1  0  0  0  0
 24 41  1  0  0  0  0
 24 42  1  0  0  0  0
 25 18  1  0  0  0  0
 25 26  1  0  0  0  0
 25 43  1  6  0  0  0
M  END
