4j17_ligand
 OpenBabel08222323353D

 43 45  0  0  1  0  0  0  0  0999 V2000
  -22.2180  -43.4590   -2.2890 C   0  0  0  0  0  0  0  0  0  0  0  0
  -22.3720  -42.7980   -3.5000 C   0  0  0  0  0  0  0  0  0  0  0  0
  -21.4260  -41.8800   -3.9410 C   0  0  0  0  0  0  0  0  0  0  0  0
  -20.3700  -41.5910   -3.2300 N   0  0  0  0  0  0  0  0  0  0  0  0
  -20.1150  -42.1780   -2.0720 C   0  0  0  0  0  0  0  0  0  0  0  0
  -20.4290  -40.5840   -5.7190 N   0  0  0  0  0  0  0  0  0  0  0  0
  -19.6440  -38.9510   -9.4610 C   0  0  0  0  0  0  0  0  0  0  0  0
  -21.0220  -43.1360   -1.5880 C   0  0  0  0  0  0  0  0  0  0  0  0
  -21.5450  -41.1990   -5.2350 C   0  0  0  0  0  0  0  0  0  0  0  0
  -22.5910  -41.2510   -5.8730 O   0  0  0  0  0  0  0  0  0  0  0  0
  -20.7760  -43.7580   -0.3250 C   0  0  0  0  0  0  0  0  0  0  0  0
  -20.5990  -44.2470    0.6630 N   0  0  0  0  0  0  0  0  0  0  0  0
  -20.2570  -39.9620   -6.9510 C   0  0  0  0  0  0  0  0  0  0  0  0
  -21.3330  -39.7080   -7.8650 C   0  0  0  0  0  0  0  0  0  0  0  0
  -20.9920  -39.2250   -9.1500 C   0  0  0  0  0  0  0  0  0  0  0  0
  -18.5760  -39.2170   -8.5260 C   0  0  0  0  0  0  0  0  0  0  0  0
  -18.9040  -39.7550   -7.2990 C   0  0  0  0  0  0  0  0  0  0  0  0
  -19.2520  -38.4440  -10.7010 F   0  0  0  0  0  0  0  0  0  0  0  0
  -17.0890  -39.0050   -8.9110 C   0  0  2  0  0  0  0  0  0  0  0  0
  -16.5650  -40.0530   -9.9440 C   0  0  0  0  0  0  0  0  0  0  0  0
  -16.4660  -41.4360   -9.3120 C   0  0  0  0  0  0  0  0  0  0  0  0
  -15.5440  -41.2290   -8.1740 O   0  0  0  0  0  0  0  0  0  0  0  0
  -15.5140  -40.1250   -7.4390 C   0  0  1  0  0  3  0  0  0  0  0  0
  -16.1990  -39.0650   -7.7080 N   0  0  0  0  0  0  0  0  0  0  0  0
  -16.8580  -37.6310   -9.4800 C   0  0  0  0  0  0  0  0  0  0  0  0
  -17.2550  -36.6460   -8.5870 F   0  0  0  0  0  0  0  0  0  0  0  0
  -15.5220  -37.4610   -9.7160 F   0  0  0  0  0  0  0  0  0  0  0  0
  -14.7090  -40.1780   -6.2760 N   0  0  0  0  0  0  0  0  0  0  0  0
  -22.9487  -44.1634   -1.9084 H   0  0  0  0  0  0  0  0  0  0  0  0
  -23.2438  -43.0010   -4.1114 H   0  0  0  0  0  0  0  0  0  0  0  0
  -19.2245  -41.9251   -1.5080 H   0  0  0  0  0  0  0  0  0  0  0  0
  -19.6342  -40.5795   -5.1121 H   0  0  0  0  0  0  0  0  0  0  0  0
  -22.3654  -39.8792   -7.5824 H   0  0  0  0  0  0  0  0  0  0  0  0
  -21.7646  -39.0659   -9.8936 H   0  0  0  0  0  0  0  0  0  0  0  0
  -18.1200  -40.0200   -6.5989 H   0  0  0  0  0  0  0  0  0  0  0  0
  -15.5691  -39.7455  -10.2956 H   0  0  0  0  0  0  0  0  0  0  0  0
  -17.2581  -40.0956  -10.7971 H   0  0  0  0  0  0  0  0  0  0  0  0
  -16.0538  -42.1656  -10.0246 H   0  0  0  0  0  0  0  0  0  0  0  0
  -17.4506  -41.7804   -8.9629 H   0  0  0  0  0  0  0  0  0  0  0  0
  -16.1326  -38.2471   -7.0854 H   0  0  0  0  0  0  0  0  0  0  0  0
  -17.4219  -37.5270  -10.4187 H   0  0  0  0  0  0  0  0  0  0  0  0
  -14.6401  -39.3558   -5.6594 H   0  0  0  0  0  0  0  0  0  0  0  0
  -14.1921  -41.0388   -6.0462 H   0  0  0  0  0  0  0  0  0  0  0  0
  1  8  1  0  0  0  0
  1 29  1  0  0  0  0
  2  1  2  0  0  0  0
  2 30  1  0  0  0  0
  3  2  1  0  0  0  0
  3  4  2  0  0  0  0
  4  5  1  0  0  0  0
  5  8  2  0  0  0  0
  5 31  1  0  0  0  0
  6  9  1  0  0  0  0
  6 32  1  0  0  0  0
  7 16  1  0  0  0  0
  7 18  1  0  0  0  0
  8 11  1  0  0  0  0
  9  3  1  0  0  0  0
  9 10  2  0  0  0  0
 11 12  3  0  0  0  0
 13  6  1  0  0  0  0
 13 17  1  0  0  0  0
 14 13  2  0  0  0  0
 14 15  1  0  0  0  0
 14 33  1  0  0  0  0
 15  7  2  0  0  0  0
 15 34  1  0  0  0  0
 16 17  2  0  0  0  0
 16 19  1  0  0  0  0
 17 35  1  0  0  0  0
 19 20  1  0  0  0  0
 19 24  1  0  0  0  0
 19 25  1  6  0  0  0
 20 21  1  0  0  0  0
 20 36  1  0  0  0  0
 20 37  1  0  0  0  0
 21 22  1  0  0  0  0
 21 38  1  0  0  0  0
 21 39  1  0  0  0  0
 22 23  1  0  0  0  0
 23 24  1  0  0  0  0
 23 28  1  1  0  0  0
 24 40  1  0  0  0  0
 25 26  1  0  0  0  0
 25 27  1  0  0  0  0
 25 41  1  0  0  0  0
 28 42  1  0  0  0  0
 28 43  1  0  0  0  0
M  END
