4j1k_ligand
 OpenBabel08222323353D

 46 48  0  0  1  0  0  0  0  0999 V2000
  -15.9580  -41.5740   -9.2490 C   0  0  2  0  0  0  0  0  0  0  0  0
  -16.1220  -40.2010   -9.8920 C   0  0  1  0  0  0  0  0  0  0  0  0
  -15.0300  -41.4230   -8.1630 O   0  0  0  0  0  0  0  0  0  0  0  0
  -15.0100  -40.3360   -7.4330 C   0  0  1  0  0  3  0  0  0  0  0  0
  -15.7230  -39.2590   -7.6490 N   0  0  0  0  0  0  0  0  0  0  0  0
  -16.6000  -39.2070   -8.8240 C   0  0  2  0  0  0  0  0  0  0  0  0
  -18.0130  -39.5880   -8.4830 C   0  0  0  0  0  0  0  0  0  0  0  0
  -18.3140  -40.1260   -7.2660 C   0  0  0  0  0  0  0  0  0  0  0  0
  -19.6560  -40.4620   -6.9760 C   0  0  0  0  0  0  0  0  0  0  0  0
  -20.7010  -40.3530   -7.9150 C   0  0  0  0  0  0  0  0  0  0  0  0
  -20.3870  -39.8100   -9.1520 C   0  0  0  0  0  0  0  0  0  0  0  0
  -19.0580  -39.4070   -9.3980 C   0  0  0  0  0  0  0  0  0  0  0  0
  -18.7790  -38.9220  -10.6080 F   0  0  0  0  0  0  0  0  0  0  0  0
  -14.1660  -40.4830   -6.3800 N   0  0  0  0  0  0  0  0  0  0  0  0
  -16.4830  -37.8220   -9.4630 C   0  0  0  0  0  0  0  0  0  0  0  0
  -19.8850  -41.0220   -5.7260 N   0  0  0  0  0  0  0  0  0  0  0  0
  -21.0230  -41.5310   -5.2280 C   0  0  0  0  0  0  0  0  0  0  0  0
  -20.9120  -42.1750   -3.9150 C   0  0  0  0  0  0  0  0  0  0  0  0
  -22.0650  -41.5380   -5.8580 O   0  0  0  0  0  0  0  0  0  0  0  0
  -19.8220  -41.9380   -3.1650 N   0  0  0  0  0  0  0  0  0  0  0  0
  -19.6010  -42.4810   -1.9880 C   0  0  0  0  0  0  0  0  0  0  0  0
  -20.5070  -43.4290   -1.5220 C   0  0  0  0  0  0  0  0  0  0  0  0
  -21.6610  -43.7540   -2.3080 C   0  0  0  0  0  0  0  0  0  0  0  0
  -21.8910  -43.1200   -3.5370 C   0  0  0  0  0  0  0  0  0  0  0  0
  -20.2890  -44.0520   -0.2370 C   0  0  0  0  0  0  0  0  0  0  0  0
  -20.1070  -44.5440    0.7890 N   0  0  0  0  0  0  0  0  0  0  0  0
  -15.2750  -42.5070  -10.2730 C   0  0  0  0  0  0  0  0  0  0  0  0
  -14.0010  -42.1130  -10.6220 F   0  0  0  0  0  0  0  0  0  0  0  0
  -15.2990  -43.7950   -9.7630 F   0  0  0  0  0  0  0  0  0  0  0  0
  -15.9510  -42.4870  -11.4370 F   0  0  0  0  0  0  0  0  0  0  0  0
  -14.8660  -39.8220  -10.3640 F   0  0  0  0  0  0  0  0  0  0  0  0
  -16.9232  -41.9789   -8.9109 H   0  0  0  0  0  0  0  0  0  0  0  0
  -16.8463  -40.2437  -10.7188 H   0  0  0  0  0  0  0  0  0  0  0  0
  -15.6688  -38.4590   -7.0025 H   0  0  0  0  0  0  0  0  0  0  0  0
  -17.5346  -40.2935   -6.5314 H   0  0  0  0  0  0  0  0  0  0  0  0
  -21.7076  -40.6797   -7.6805 H   0  0  0  0  0  0  0  0  0  0  0  0
  -21.1485  -39.6975   -9.9152 H   0  0  0  0  0  0  0  0  0  0  0  0
  -14.0398  -39.7114   -5.7095 H   0  0  0  0  0  0  0  0  0  0  0  0
  -13.6518  -41.3662   -6.2515 H   0  0  0  0  0  0  0  0  0  0  0  0
  -16.8129  -37.0575   -8.7442 H   0  0  0  0  0  0  0  0  0  0  0  0
  -17.1162  -37.7780  -10.3614 H   0  0  0  0  0  0  0  0  0  0  0  0
  -15.4359  -37.6345   -9.7428 H   0  0  0  0  0  0  0  0  0  0  0  0
  -19.0949  -41.0499   -5.1137 H   0  0  0  0  0  0  0  0  0  0  0  0
  -18.7373  -42.1981   -1.3972 H   0  0  0  0  0  0  0  0  0  0  0  0
  -22.3630  -44.4976   -1.9483 H   0  0  0  0  0  0  0  0  0  0  0  0
  -22.7565  -43.3390   -4.1518 H   0  0  0  0  0  0  0  0  0  0  0  0
  1  2  1  0  0  0  0
  1  3  1  0  0  0  0
  1 27  1  0  0  0  0
  1 32  1  1  0  0  0
  2  6  1  0  0  0  0
  2 31  1  0  0  0  0
  2 33  1  6  0  0  0
  3  4  1  0  0  0  0
  4  5  1  0  0  0  0
  4 14  1  1  0  0  0
  5  6  1  0  0  0  0
  5 34  1  0  0  0  0
  6  7  1  0  0  0  0
  6 15  1  6  0  0  0
  7  8  2  0  0  0  0
  7 12  1  0  0  0  0
  8  9  1  0  0  0  0
  8 35  1  0  0  0  0
  9 10  2  0  0  0  0
  9 16  1  0  0  0  0
 10 11  1  0  0  0  0
 10 36  1  0  0  0  0
 11 12  2  0  0  0  0
 11 37  1  0  0  0  0
 12 13  1  0  0  0  0
 14 38  1  0  0  0  0
 14 39  1  0  0  0  0
 15 40  1  0  0  0  0
 15 41  1  0  0  0  0
 15 42  1  0  0  0  0
 16 17  1  0  0  0  0
 16 43  1  0  0  0  0
 17 18  1  0  0  0  0
 17 19  2  0  0  0  0
 18 20  2  0  0  0  0
 18 24  1  0  0  0  0
 20 21  1  0  0  0  0
 21 22  2  0  0  0  0
 21 44  1  0  0  0  0
 22 23  1  0  0  0  0
 22 25  1  0  0  0  0
 23 24  2  0  0  0  0
 23 45  1  0  0  0  0
 24 46  1  0  0  0  0
 25 26  3  0  0  0  0
 27 28  1  0  0  0  0
 27 29  1  0  0  0  0
 27 30  1  0  0  0  0
M  END
