4j1p_ligand
 OpenBabel08222323353D

 49 51  0  0  0  0  0  0  0  0999 V2000
   14.5830   21.1100   -7.3150 O   0  0  0  0  0  0  0  0  0  0  0  0
   15.5120   22.0300   -6.7020 C   0  0  0  0  0  0  0  0  0  0  0  0
   13.3790   20.9580   -6.7520 C   0  0  0  0  0  0  0  0  0  0  0  0
   12.5510   20.0230   -7.3590 C   0  0  0  0  0  0  0  0  0  0  0  0
   11.3090   19.7610   -6.8550 C   0  0  0  0  0  0  0  0  0  0  0  0
    9.2490   20.9720   -3.9930 N   0  0  0  0  0  0  0  0  0  0  0  0
   10.7910   18.4110   -8.7730 C   0  0  0  0  0  0  0  0  0  0  0  0
   10.4280   18.9030   -7.4710 O   0  0  0  0  0  0  0  0  0  0  0  0
   10.8260   20.4160   -5.6890 C   0  0  0  0  0  0  0  0  0  0  0  0
    8.6570   24.6660    1.1930 O   0  0  0  0  0  0  0  0  0  0  0  0
   11.2900   22.1520   -4.0120 N   0  0  0  0  0  0  0  0  0  0  0  0
    9.5800   20.1500   -5.0640 C   0  0  0  0  0  0  0  0  0  0  0  0
   10.1050   21.9130   -3.4900 C   0  0  0  0  0  0  0  0  0  0  0  0
    7.1620   25.0360    3.5290 O   0  0  0  0  0  0  0  0  0  0  0  0
    8.7870   19.2520   -5.3630 O   0  0  0  0  0  0  0  0  0  0  0  0
    9.6680   22.6690   -2.2800 C   0  0  0  0  0  0  0  0  0  0  0  0
    8.4030   22.7770   -1.9070 C   0  0  0  0  0  0  0  0  0  0  0  0
    8.0130   23.3830   -0.7220 C   0  0  0  0  0  0  0  0  0  0  0  0
    6.5660   23.4710   -0.2940 C   0  0  0  0  0  0  0  0  0  0  0  0
    9.0330   24.0140    0.0230 C   0  0  0  0  0  0  0  0  0  0  0  0
    8.7930   23.8560    2.3780 C   0  0  0  0  0  0  0  0  0  0  0  0
    8.4990   24.6730    3.6170 C   0  0  0  0  0  0  0  0  0  0  0  0
   10.3550   23.9730   -0.3440 C   0  0  0  0  0  0  0  0  0  0  0  0
   11.3840   24.6510    0.4600 C   0  0  0  0  0  0  0  0  0  0  0  0
   10.6650   23.3210   -1.5340 C   0  0  0  0  0  0  0  0  0  0  0  0
   11.7010   21.4130   -5.1390 C   0  0  0  0  0  0  0  0  0  0  0  0
   12.9480   21.6510   -5.6430 C   0  0  0  0  0  0  0  0  0  0  0  0
   16.4491   22.0428   -7.2778 H   0  0  0  0  0  0  0  0  0  0  0  0
   15.7198   21.7086   -5.6707 H   0  0  0  0  0  0  0  0  0  0  0  0
   15.0749   23.0393   -6.6906 H   0  0  0  0  0  0  0  0  0  0  0  0
   12.8939   19.4957   -8.2419 H   0  0  0  0  0  0  0  0  0  0  0  0
    8.3473   20.8712   -3.5726 H   0  0  0  0  0  0  0  0  0  0  0  0
   10.0021   17.7405   -9.1446 H   0  0  0  0  0  0  0  0  0  0  0  0
   11.7397   17.8585   -8.7048 H   0  0  0  0  0  0  0  0  0  0  0  0
   10.9087   19.2577   -9.4653 H   0  0  0  0  0  0  0  0  0  0  0  0
    6.6240   24.2536    3.4980 H   0  0  0  0  0  0  0  0  0  0  0  0
    7.6360   22.3731   -2.5578 H   0  0  0  0  0  0  0  0  0  0  0  0
    5.9386   22.9148   -1.0060 H   0  0  0  0  0  0  0  0  0  0  0  0
    6.2527   24.5253   -0.2750 H   0  0  0  0  0  0  0  0  0  0  0  0
    6.4536   23.0369    0.7104 H   0  0  0  0  0  0  0  0  0  0  0  0
    9.8210   23.4690    2.4356 H   0  0  0  0  0  0  0  0  0  0  0  0
    8.0868   23.0144    2.3238 H   0  0  0  0  0  0  0  0  0  0  0  0
    8.6728   24.0714    4.5213 H   0  0  0  0  0  0  0  0  0  0  0  0
    9.1370   25.5686    3.6442 H   0  0  0  0  0  0  0  0  0  0  0  0
   12.3704   24.4977   -0.0022 H   0  0  0  0  0  0  0  0  0  0  0  0
   11.3874   24.2344    1.4780 H   0  0  0  0  0  0  0  0  0  0  0  0
   11.1636   25.7277    0.5051 H   0  0  0  0  0  0  0  0  0  0  0  0
   11.6888   23.3160   -1.8901 H   0  0  0  0  0  0  0  0  0  0  0  0
   13.5953   22.3820   -5.1721 H   0  0  0  0  0  0  0  0  0  0  0  0
  1  2  1  0  0  0  0
  2 28  1  0  0  0  0
  2 29  1  0  0  0  0
  2 30  1  0  0  0  0
  3  1  1  0  0  0  0
  3 27  1  0  0  0  0
  4  3  2  0  0  0  0
  4 31  1  0  0  0  0
  5  4  1  0  0  0  0
  5  8  1  0  0  0  0
  6 12  1  0  0  0  0
  6 32  1  0  0  0  0
  7 33  1  0  0  0  0
  7 34  1  0  0  0  0
  7 35  1  0  0  0  0
  8  7  1  0  0  0  0
  9  5  2  0  0  0  0
 10 20  1  0  0  0  0
 11 26  1  0  0  0  0
 12  9  1  0  0  0  0
 12 15  2  0  0  0  0
 13  6  1  0  0  0  0
 13 11  2  0  0  0  0
 14 36  1  0  0  0  0
 16 13  1  0  0  0  0
 16 25  1  0  0  0  0
 17 16  2  0  0  0  0
 17 37  1  0  0  0  0
 18 17  1  0  0  0  0
 18 19  1  0  0  0  0
 19 38  1  0  0  0  0
 19 39  1  0  0  0  0
 19 40  1  0  0  0  0
 20 18  2  0  0  0  0
 20 23  1  0  0  0  0
 21 10  1  0  0  0  0
 21 22  1  0  0  0  0
 21 41  1  0  0  0  0
 21 42  1  0  0  0  0
 22 14  1  0  0  0  0
 22 43  1  0  0  0  0
 22 44  1  0  0  0  0
 23 24  1  0  0  0  0
 23 25  2  0  0  0  0
 24 45  1  0  0  0  0
 24 46  1  0  0  0  0
 24 47  1  0  0  0  0
 25 48  1  0  0  0  0
 26  9  1  0  0  0  0
 26 27  2  0  0  0  0
 27 49  1  0  0  0  0
M  END
