4j3e_ligand
 OpenBabel08222323353D

 70 74  0  0  1  0  0  0  0  0999 V2000
    7.9740   27.2330   34.4680 O   0  0  0  0  0  0  0  0  0  0  0  0
    8.0030   26.7450   35.6050 C   0  0  0  0  0  0  0  0  0  0  0  0
    7.7840   27.4960   36.7240 N   0  0  0  0  0  0  0  0  0  0  0  0
    7.0940   28.7840   36.5830 C   0  0  0  0  0  0  0  0  0  0  0  0
    8.0740   29.8910   36.8040 C   0  0  0  0  0  0  0  0  0  0  0  0
    8.1960   30.8610   36.0510 O   0  0  0  0  0  0  0  0  0  0  0  0
    8.8410   29.7670   37.8890 N   0  0  0  0  0  0  0  0  0  0  0  0
    8.6910   28.5980   38.7800 C   0  0  0  0  0  0  0  0  0  0  0  0
    8.5940   27.2970   37.9560 C   0  0  0  0  0  0  0  0  0  0  0  0
    8.3720   25.3900   35.7790 N   0  0  0  0  0  0  0  0  0  0  0  0
    8.1970   24.5780   36.9140 C   0  0  0  0  0  0  0  0  0  0  0  0
    7.1070   24.7980   37.8810 C   0  0  0  0  0  0  0  0  0  0  0  0
    7.3190   24.5280   39.2500 C   0  0  0  0  0  0  0  0  0  0  0  0
    6.3090   24.7440   40.1850 C   0  0  0  0  0  0  0  0  0  0  0  0
    5.8240   25.2650   37.4780 C   0  0  0  0  0  0  0  0  0  0  0  0
    5.5800   25.4340   36.1700 O   0  0  0  0  0  0  0  0  0  0  0  0
    4.3130   26.0090   35.8240 C   0  0  0  0  0  0  0  0  0  0  0  0
    4.4280   26.7620   34.4950 C   0  0  0  0  0  0  0  0  0  0  0  0
    3.2260   24.9320   35.7160 C   0  0  0  0  0  0  0  0  0  0  0  0
    4.8050   25.5130   38.4030 C   0  0  0  0  0  0  0  0  0  0  0  0
    5.0630   25.2340   39.7460 C   0  0  0  0  0  0  0  0  0  0  0  0
    4.0870   25.4200   40.6480 O   0  0  0  0  0  0  0  0  0  0  0  0
    4.4110   25.0410   41.9830 C   0  0  0  0  0  0  0  0  0  0  0  0
    9.3620   24.7990   34.8830 C   0  0  2  0  0  0  0  0  0  0  0  0
    8.6530   24.1230   33.7240 C   0  0  0  0  0  0  0  0  0  0  0  0
    7.2780   23.8420   33.8210 C   0  0  0  0  0  0  0  0  0  0  0  0
    6.6180   23.1770   32.7980 C   0  0  0  0  0  0  0  0  0  0  0  0
    7.3510   22.7790   31.6470 C   0  0  0  0  0  0  0  0  0  0  0  0
    6.5860   21.9100   30.4430 Cl  0  0  0  0  0  0  0  0  0  0  0  0
    8.7260   23.1060   31.5160 C   0  0  0  0  0  0  0  0  0  0  0  0
    9.3600   23.7730   32.5570 C   0  0  0  0  0  0  0  0  0  0  0  0
   10.0410   23.7850   35.8420 C   0  0  1  0  0  0  0  0  0  0  0  0
    9.1040   23.6340   36.9600 N   0  0  0  0  0  0  0  0  0  0  0  0
   10.4210   22.4690   35.2130 C   0  0  0  0  0  0  0  0  0  0  0  0
   11.7680   22.2420   34.8740 C   0  0  0  0  0  0  0  0  0  0  0  0
   12.1540   21.0710   34.2600 C   0  0  0  0  0  0  0  0  0  0  0  0
   11.1720   20.0950   33.9660 C   0  0  0  0  0  0  0  0  0  0  0  0
   11.6110   18.7210   33.1300 Cl  0  0  0  0  0  0  0  0  0  0  0  0
    9.8190   20.2830   34.3560 C   0  0  0  0  0  0  0  0  0  0  0  0
    9.4600   21.4720   34.9750 C   0  0  0  0  0  0  0  0  0  0  0  0
    6.2868   28.8528   37.3271 H   0  0  0  0  0  0  0  0  0  0  0  0
    6.6686   28.8652   35.5719 H   0  0  0  0  0  0  0  0  0  0  0  0
    9.5210   30.4692   38.1001 H   0  0  0  0  0  0  0  0  0  0  0  0
    7.7763   28.7153   39.3796 H   0  0  0  0  0  0  0  0  0  0  0  0
    9.5626   28.5385   39.4484 H   0  0  0  0  0  0  0  0  0  0  0  0
    9.6071   26.9772   37.6709 H   0  0  0  0  0  0  0  0  0  0  0  0
    8.1231   26.5170   38.5723 H   0  0  0  0  0  0  0  0  0  0  0  0
    8.2797   24.1478   39.5781 H   0  0  0  0  0  0  0  0  0  0  0  0
    6.4793   24.5380   41.2355 H   0  0  0  0  0  0  0  0  0  0  0  0
    4.0246   26.7204   36.6118 H   0  0  0  0  0  0  0  0  0  0  0  0
    3.4528   27.2001   34.2363 H   0  0  0  0  0  0  0  0  0  0  0  0
    4.7378   26.0638   33.7035 H   0  0  0  0  0  0  0  0  0  0  0  0
    5.1759   27.5629   34.5908 H   0  0  0  0  0  0  0  0  0  0  0  0
    2.2682   25.4031   35.4501 H   0  0  0  0  0  0  0  0  0  0  0  0
    3.1247   24.4151   36.6817 H   0  0  0  0  0  0  0  0  0  0  0  0
    3.5055   24.2055   34.9388 H   0  0  0  0  0  0  0  0  0  0  0  0
    3.8465   25.9088   38.0874 H   0  0  0  0  0  0  0  0  0  0  0  0
    3.5485   25.2329   42.6382 H   0  0  0  0  0  0  0  0  0  0  0  0
    5.2738   25.6275   42.3315 H   0  0  0  0  0  0  0  0  0  0  0  0
    4.6606   23.9701   42.0098 H   0  0  0  0  0  0  0  0  0  0  0  0
   10.0790   25.5415   34.5027 H   0  0  0  0  0  0  0  0  0  0  0  0
    6.7287   24.1482   34.7040 H   0  0  0  0  0  0  0  0  0  0  0  0
    5.5580   22.9638   32.8753 H   0  0  0  0  0  0  0  0  0  0  0  0
    9.2725   22.8397   30.6185 H   0  0  0  0  0  0  0  0  0  0  0  0
   10.4103   24.0268   32.4701 H   0  0  0  0  0  0  0  0  0  0  0  0
   10.9706   24.2362   36.2192 H   0  0  0  0  0  0  0  0  0  0  0  0
   12.5112   22.9984   35.0990 H   0  0  0  0  0  0  0  0  0  0  0  0
   13.1938   20.8996   34.0059 H   0  0  0  0  0  0  0  0  0  0  0  0
    9.0800   19.5113   34.1733 H   0  0  0  0  0  0  0  0  0  0  0  0
    8.4314   21.6326   35.2769 H   0  0  0  0  0  0  0  0  0  0  0  0
  1  2  2  0  0  0  0
  2  3  1  0  0  0  0
  2 10  1  0  0  0  0
  3  4  1  0  0  0  0
  3  9  1  0  0  0  0
  4  5  1  0  0  0  0
  4 41  1  0  0  0  0
  4 42  1  0  0  0  0
  5  6  2  0  0  0  0
  5  7  1  0  0  0  0
  7  8  1  0  0  0  0
  7 43  1  0  0  0  0
  8  9  1  0  0  0  0
  8 44  1  0  0  0  0
  8 45  1  0  0  0  0
  9 46  1  0  0  0  0
  9 47  1  0  0  0  0
 10 11  1  0  0  0  0
 10 24  1  0  0  0  0
 11 12  1  0  0  0  0
 11 33  2  0  0  0  0
 12 13  2  0  0  0  0
 12 15  1  0  0  0  0
 13 14  1  0  0  0  0
 13 48  1  0  0  0  0
 14 21  2  0  0  0  0
 14 49  1  0  0  0  0
 15 16  1  0  0  0  0
 15 20  2  0  0  0  0
 16 17  1  0  0  0  0
 17 18  1  0  0  0  0
 17 19  1  0  0  0  0
 17 50  1  0  0  0  0
 18 51  1  0  0  0  0
 18 52  1  0  0  0  0
 18 53  1  0  0  0  0
 19 54  1  0  0  0  0
 19 55  1  0  0  0  0
 19 56  1  0  0  0  0
 20 21  1  0  0  0  0
 20 57  1  0  0  0  0
 21 22  1  0  0  0  0
 22 23  1  0  0  0  0
 23 58  1  0  0  0  0
 23 59  1  0  0  0  0
 23 60  1  0  0  0  0
 24 25  1  0  0  0  0
 24 32  1  0  0  0  0
 24 61  1  6  0  0  0
 25 26  2  0  0  0  0
 25 31  1  0  0  0  0
 26 27  1  0  0  0  0
 26 62  1  0  0  0  0
 27 28  2  0  0  0  0
 27 63  1  0  0  0  0
 28 29  1  0  0  0  0
 28 30  1  0  0  0  0
 30 31  2  0  0  0  0
 30 64  1  0  0  0  0
 31 65  1  0  0  0  0
 32 33  1  0  0  0  0
 32 34  1  0  0  0  0
 32 66  1  1  0  0  0
 34 35  2  0  0  0  0
 34 40  1  0  0  0  0
 35 36  1  0  0  0  0
 35 67  1  0  0  0  0
 36 37  2  0  0  0  0
 36 68  1  0  0  0  0
 37 38  1  0  0  0  0
 37 39  1  0  0  0  0
 39 40  2  0  0  0  0
 39 69  1  0  0  0  0
 40 70  1  0  0  0  0
M  END
