4j3i_ligand
 OpenBabel08222323353D

 49 51  0  0  0  0  0  0  0  0999 V2000
   -8.6540   -6.2660   -0.7220 O   0  0  0  0  0  0  0  0  0  0  0  0
   -7.7440   -7.1740   -0.1290 C   0  0  0  0  0  0  0  0  0  0  0  0
   -9.8780   -6.1690   -0.1790 C   0  0  0  0  0  0  0  0  0  0  0  0
  -10.7000   -5.2150   -0.8430 C   0  0  0  0  0  0  0  0  0  0  0  0
  -12.0080   -4.9840   -0.4400 C   0  0  0  0  0  0  0  0  0  0  0  0
  -14.2140   -6.2910    2.2990 N   0  0  0  0  0  0  0  0  0  0  0  0
  -12.1700   -3.0510   -1.8630 C   0  0  0  0  0  0  0  0  0  0  0  0
  -12.7770   -4.0120   -0.9400 O   0  0  0  0  0  0  0  0  0  0  0  0
  -12.5340   -5.7120    0.6600 C   0  0  0  0  0  0  0  0  0  0  0  0
  -14.2170   -9.5610    7.7900 O   0  0  0  0  0  0  0  0  0  0  0  0
  -12.1400   -7.3740    2.4000 N   0  0  0  0  0  0  0  0  0  0  0  0
  -13.8850   -5.5530    1.1990 C   0  0  0  0  0  0  0  0  0  0  0  0
  -13.3290   -7.1530    2.8950 C   0  0  0  0  0  0  0  0  0  0  0  0
  -17.3310   -9.8320    6.5330 O   0  0  0  0  0  0  0  0  0  0  0  0
  -14.7850   -4.8340    0.6720 O   0  0  0  0  0  0  0  0  0  0  0  0
  -13.6150   -7.8650    4.1130 C   0  0  0  0  0  0  0  0  0  0  0  0
  -14.2040   -7.1300    5.1180 C   0  0  0  0  0  0  0  0  0  0  0  0
  -14.4460   -7.6540    6.3930 C   0  0  0  0  0  0  0  0  0  0  0  0
  -15.1640   -6.8980    7.5140 C   0  0  0  0  0  0  0  0  0  0  0  0
  -14.0260   -9.0010    6.5900 C   0  0  0  0  0  0  0  0  0  0  0  0
  -15.5430   -9.8970    8.2450 C   0  0  0  0  0  0  0  0  0  0  0  0
  -16.3590  -10.6360    7.1560 C   0  0  0  0  0  0  0  0  0  0  0  0
  -13.4240   -9.8140    5.5250 C   0  0  0  0  0  0  0  0  0  0  0  0
  -12.9600  -11.2110    5.7800 C   0  0  0  0  0  0  0  0  0  0  0  0
  -13.1410   -9.1720    4.3710 C   0  0  0  0  0  0  0  0  0  0  0  0
  -11.6860   -6.6590    1.3330 C   0  0  0  0  0  0  0  0  0  0  0  0
  -10.3880   -6.8940    0.8580 C   0  0  0  0  0  0  0  0  0  0  0  0
   -6.7898   -7.1463   -0.6755 H   0  0  0  0  0  0  0  0  0  0  0  0
   -8.1610   -8.1910   -0.1708 H   0  0  0  0  0  0  0  0  0  0  0  0
   -7.5740   -6.8902    0.9201 H   0  0  0  0  0  0  0  0  0  0  0  0
  -10.2962   -4.6576   -1.6804 H   0  0  0  0  0  0  0  0  0  0  0  0
  -15.1325   -6.2001    2.6839 H   0  0  0  0  0  0  0  0  0  0  0  0
  -12.9278   -2.3205   -2.1824 H   0  0  0  0  0  0  0  0  0  0  0  0
  -11.7804   -3.5836   -2.7430 H   0  0  0  0  0  0  0  0  0  0  0  0
  -11.3459   -2.5269   -1.3570 H   0  0  0  0  0  0  0  0  0  0  0  0
  -16.9074   -9.0913    6.1153 H   0  0  0  0  0  0  0  0  0  0  0  0
  -14.4915   -6.1051    4.9133 H   0  0  0  0  0  0  0  0  0  0  0  0
  -15.4062   -5.8805    7.1734 H   0  0  0  0  0  0  0  0  0  0  0  0
  -14.5100   -6.8432    8.3967 H   0  0  0  0  0  0  0  0  0  0  0  0
  -16.0918   -7.4270    7.7773 H   0  0  0  0  0  0  0  0  0  0  0  0
  -16.0706   -8.9709    8.5171 H   0  0  0  0  0  0  0  0  0  0  0  0
  -15.4614  -10.5459    9.1294 H   0  0  0  0  0  0  0  0  0  0  0  0
  -15.6620  -10.9976    6.3857 H   0  0  0  0  0  0  0  0  0  0  0  0
  -16.8654  -11.4932    7.6237 H   0  0  0  0  0  0  0  0  0  0  0  0
  -12.5448  -11.6343    4.8535 H   0  0  0  0  0  0  0  0  0  0  0  0
  -13.8096  -11.8243    6.1147 H   0  0  0  0  0  0  0  0  0  0  0  0
  -12.1839  -11.2031    6.5595 H   0  0  0  0  0  0  0  0  0  0  0  0
  -12.5351   -9.6713    3.6236 H   0  0  0  0  0  0  0  0  0  0  0  0
   -9.7808   -7.6631    1.3215 H   0  0  0  0  0  0  0  0  0  0  0  0
  1  2  1  0  0  0  0
  2 28  1  0  0  0  0
  2 29  1  0  0  0  0
  2 30  1  0  0  0  0
  3  1  1  0  0  0  0
  3 27  1  0  0  0  0
  4  3  2  0  0  0  0
  4 31  1  0  0  0  0
  5  4  1  0  0  0  0
  5  8  1  0  0  0  0
  6 12  1  0  0  0  0
  6 32  1  0  0  0  0
  7 33  1  0  0  0  0
  7 34  1  0  0  0  0
  7 35  1  0  0  0  0
  8  7  1  0  0  0  0
  9  5  2  0  0  0  0
 10 20  1  0  0  0  0
 11 26  1  0  0  0  0
 12  9  1  0  0  0  0
 12 15  2  0  0  0  0
 13  6  1  0  0  0  0
 13 11  2  0  0  0  0
 14 36  1  0  0  0  0
 16 13  1  0  0  0  0
 16 25  1  0  0  0  0
 17 16  2  0  0  0  0
 17 37  1  0  0  0  0
 18 17  1  0  0  0  0
 18 19  1  0  0  0  0
 19 38  1  0  0  0  0
 19 39  1  0  0  0  0
 19 40  1  0  0  0  0
 20 18  2  0  0  0  0
 20 23  1  0  0  0  0
 21 10  1  0  0  0  0
 21 22  1  0  0  0  0
 21 41  1  0  0  0  0
 21 42  1  0  0  0  0
 22 14  1  0  0  0  0
 22 43  1  0  0  0  0
 22 44  1  0  0  0  0
 23 24  1  0  0  0  0
 23 25  2  0  0  0  0
 24 45  1  0  0  0  0
 24 46  1  0  0  0  0
 24 47  1  0  0  0  0
 25 48  1  0  0  0  0
 26  9  1  0  0  0  0
 26 27  2  0  0  0  0
 27 49  1  0  0  0  0
M  END
