4j3j_ligand
 OpenBabel08222323353D

 51 53  0  0  1  0  0  0  0  0999 V2000
    8.7670   16.1120  -29.0690 F   0  0  0  0  0  0  0  0  0  0  0  0
    9.0950   17.3780  -29.3020 C   0  0  0  0  0  0  0  0  0  0  0  0
   10.3840   17.5610  -29.0270 F   0  0  0  0  0  0  0  0  0  0  0  0
    8.8720   17.6550  -30.5860 F   0  0  0  0  0  0  0  0  0  0  0  0
    8.2460   18.2960  -28.4090 C   0  0  0  0  0  0  0  0  0  0  0  0
    7.5140   19.3190  -28.8490 C   0  0  0  0  0  0  0  0  0  0  0  0
    6.9090   19.8940  -27.8070 C   0  0  0  0  0  0  0  0  0  0  0  0
    7.2530   19.2420  -26.6990 C   0  0  0  0  0  0  0  0  0  0  0  0
    6.8210   19.5180  -25.2690 C   0  0  0  0  0  0  0  0  0  0  0  0
    8.1200   18.1900  -27.0230 N   0  0  0  0  0  0  0  0  0  0  0  0
    8.7010   17.2470  -26.0100 C   0  0  0  0  0  0  0  0  0  0  0  0
    8.2720   17.5530  -24.5580 C   0  0  0  0  0  0  0  0  0  0  0  0
    6.9550   18.2400  -24.5360 N   0  0  0  0  0  0  0  0  0  0  0  0
    5.8920   17.7260  -23.9070 C   0  0  0  0  0  0  0  0  0  0  0  0
    4.8380   18.3640  -23.9590 O   0  0  0  0  0  0  0  0  0  0  0  0
    6.0060   16.5750  -23.2400 N   0  0  0  0  0  0  0  0  0  0  0  0
    4.8770   15.9420  -22.5320 C   0  0  0  0  0  0  0  0  0  0  0  0
    4.3580   16.8230  -21.3850 C   0  0  0  0  0  0  0  0  0  0  0  0
    3.3190   16.0820  -20.5390 C   0  0  2  0  0  0  0  0  0  0  0  0
    2.5240   17.0470  -19.7650 N   0  3  0  0  0  0  0  0  0  0  0  0
    4.0490   15.1240  -19.5880 C   0  0  0  0  0  0  0  0  0  0  0  0
    3.0900   14.3310  -18.7010 C   0  0  0  0  0  0  0  0  0  0  0  0
    2.3200   13.3310  -19.2990 C   0  0  0  0  0  0  0  0  0  0  0  0
    1.4310   12.5760  -18.5380 C   0  0  0  0  0  0  0  0  0  0  0  0
    0.6880   11.6150  -19.1200 F   0  0  0  0  0  0  0  0  0  0  0  0
    1.3090   12.8140  -17.1740 C   0  0  0  0  0  0  0  0  0  0  0  0
    0.4520   12.0810  -16.4470 F   0  0  0  0  0  0  0  0  0  0  0  0
    2.0750   13.8060  -16.5670 C   0  0  0  0  0  0  0  0  0  0  0  0
    2.9630   14.5590  -17.3320 C   0  0  0  0  0  0  0  0  0  0  0  0
    3.7020   15.5210  -16.7450 F   0  0  0  0  0  0  0  0  0  0  0  0
    7.4241   19.6341  -29.8875 H   0  0  0  0  0  0  0  0  0  0  0  0
    6.2436   20.7547  -27.8557 H   0  0  0  0  0  0  0  0  0  0  0  0
    5.7761   19.8609  -25.2471 H   0  0  0  0  0  0  0  0  0  0  0  0
    7.4680   20.2846  -24.8177 H   0  0  0  0  0  0  0  0  0  0  0  0
    9.7978   17.3078  -26.0680 H   0  0  0  0  0  0  0  0  0  0  0  0
    8.3766   16.2261  -26.2599 H   0  0  0  0  0  0  0  0  0  0  0  0
    9.0258   18.2012  -24.0872 H   0  0  0  0  0  0  0  0  0  0  0  0
    8.1972   16.6100  -23.9967 H   0  0  0  0  0  0  0  0  0  0  0  0
    6.8970   16.1215  -23.2194 H   0  0  0  0  0  0  0  0  0  0  0  0
    5.2108   14.9789  -22.1184 H   0  0  0  0  0  0  0  0  0  0  0  0
    4.0592   15.7702  -23.2473 H   0  0  0  0  0  0  0  0  0  0  0  0
    3.8960   17.7269  -21.8086 H   0  0  0  0  0  0  0  0  0  0  0  0
    5.2038   17.1099  -20.7429 H   0  0  0  0  0  0  0  0  0  0  0  0
    2.6514   15.5072  -21.1978 H   0  0  0  0  0  0  0  0  0  0  0  0
    1.8424   16.5528  -19.2107 H   0  0  0  0  0  0  0  0  0  0  0  0
    2.0520   17.6760  -20.3956 H   0  0  0  0  0  0  0  0  0  0  0  0
    3.1326   17.5736  -19.1581 H   0  0  0  0  0  0  0  0  0  0  0  0
    4.7205   15.7108  -18.9440 H   0  0  0  0  0  0  0  0  0  0  0  0
    4.6411   14.4165  -20.1870 H   0  0  0  0  0  0  0  0  0  0  0  0
    2.4149   13.1413  -20.3621 H   0  0  0  0  0  0  0  0  0  0  0  0
    1.9807   13.9916  -15.5032 H   0  0  0  0  0  0  0  0  0  0  0  0
  1  2  1  0  0  0  0
  2  3  1  0  0  0  0
  2  4  1  0  0  0  0
  2  5  1  0  0  0  0
  5  6  2  0  0  0  0
  5 10  1  0  0  0  0
  6  7  1  0  0  0  0
  6 31  1  0  0  0  0
  7  8  2  0  0  0  0
  7 32  1  0  0  0  0
  8  9  1  0  0  0  0
  8 10  1  0  0  0  0
  9 13  1  0  0  0  0
  9 33  1  0  0  0  0
  9 34  1  0  0  0  0
 10 11  1  0  0  0  0
 11 12  1  0  0  0  0
 11 35  1  0  0  0  0
 11 36  1  0  0  0  0
 12 13  1  0  0  0  0
 12 37  1  0  0  0  0
 12 38  1  0  0  0  0
 13 14  1  0  0  0  0
 14 15  2  0  0  0  0
 14 16  1  0  0  0  0
 16 17  1  0  0  0  0
 16 39  1  0  0  0  0
 17 18  1  0  0  0  0
 17 40  1  0  0  0  0
 17 41  1  0  0  0  0
 18 19  1  0  0  0  0
 18 42  1  0  0  0  0
 18 43  1  0  0  0  0
 19 20  1  0  0  0  0
 19 21  1  0  0  0  0
 19 44  1  6  0  0  0
 20 45  1  0  0  0  0
 20 46  1  0  0  0  0
 20 47  1  0  0  0  0
 21 22  1  0  0  0  0
 21 48  1  0  0  0  0
 21 49  1  0  0  0  0
 22 23  2  0  0  0  0
 22 29  1  0  0  0  0
 23 24  1  0  0  0  0
 23 50  1  0  0  0  0
 24 25  1  0  0  0  0
 24 26  2  0  0  0  0
 26 27  1  0  0  0  0
 26 28  1  0  0  0  0
 28 29  2  0  0  0  0
 28 51  1  0  0  0  0
 29 30  1  0  0  0  0
M  CHG  1  20   1
M  END
