4j3u_ligand
 OpenBabel08222323353D

189198  0  0  1  0  0  0  0  0999 V2000
  139.4430   10.9060    1.3850 C   0  0  2  0  0  0  0  0  0  0  0  0
  139.1130   11.7670    0.1750 C   0  0  1  0  0  0  0  0  0  0  0  0
  139.5390   11.0710   -1.1090 C   0  0  2  0  0  0  0  0  0  0  0  0
  140.9900   10.6000   -1.0600 C   0  0  1  0  0  0  0  0  0  0  0  0
  141.3520    9.9190    0.2660 C   0  0  1  0  0  0  0  0  0  0  0  0
  142.8640    9.8140    0.4540 C   0  0  0  0  0  0  0  0  0  0  0  0
  137.7050   12.0250    0.1400 O   0  0  0  0  0  0  0  0  0  0  0  0
  139.3700   11.9820   -2.2000 O   0  0  0  0  0  0  0  0  0  0  0  0
  141.1840    9.6710   -2.1350 O   0  0  0  0  0  0  0  0  0  0  0  0
  140.8420   10.6270    1.3980 O   0  0  0  0  0  0  0  0  0  0  0  0
  143.3270    8.5250    0.0400 O   0  0  0  0  0  0  0  0  0  0  0  0
  136.2260    7.5410    3.8310 C   0  0  2  0  0  0  0  0  0  0  0  0
  135.5370    8.6790    3.0930 C   0  0  1  0  0  0  0  0  0  0  0  0
  136.4190    9.1580    1.9500 C   0  0  2  0  0  0  0  0  0  0  0  0
  137.8270    9.4740    2.4490 C   0  0  1  0  0  0  0  0  0  0  0  0
  138.4020    8.3470    3.3090 C   0  0  1  0  0  0  0  0  0  0  0  0
  139.7360    8.7170    3.9500 C   0  0  0  0  0  0  0  0  0  0  0  0
  134.2690    8.2430    2.5890 O   0  0  0  0  0  0  0  0  0  0  0  0
  135.8370   10.3320    1.3790 O   0  0  0  0  0  0  0  0  0  0  0  0
  138.6900    9.6890    1.3310 O   0  0  0  0  0  0  0  0  0  0  0  0
  137.4760    8.0080    4.3420 O   0  0  0  0  0  0  0  0  0  0  0  0
  139.6040    9.9280    4.7020 O   0  0  0  0  0  0  0  0  0  0  0  0
  135.7790    2.4380    2.6250 C   0  0  2  0  0  0  0  0  0  0  0  0
  134.5480    3.3350    2.5120 C   0  0  1  0  0  0  0  0  0  0  0  0
  134.9830    4.7600    2.2250 C   0  0  2  0  0  0  0  0  0  0  0  0
  135.9720    5.2000    3.2950 C   0  0  1  0  0  0  0  0  0  0  0  0
  137.1380    4.2200    3.4230 C   0  0  1  0  0  0  0  0  0  0  0  0
  138.1150    4.5980    4.5330 C   0  0  0  0  0  0  0  0  0  0  0  0
  133.6590    2.8750    1.4900 O   0  0  0  0  0  0  0  0  0  0  0  0
  133.8380    5.6230    2.2150 O   0  0  0  0  0  0  0  0  0  0  0  0
  136.4600    6.4770    2.9080 O   0  0  0  0  0  0  0  0  0  0  0  0
  136.6250    2.9090    3.6760 O   0  0  0  0  0  0  0  0  0  0  0  0
  137.4680    4.5570    5.8080 O   0  0  0  0  0  0  0  0  0  0  0  0
  137.8180   -0.6460   -1.1080 C   0  0  1  0  0  0  0  0  0  0  0  0
  138.5550   -0.3220    0.0760 O   0  0  0  0  0  0  0  0  0  0  0  0
  136.3230   -0.5850   -0.8100 C   0  0  2  0  0  0  0  0  0  0  0  0
  135.5890   -0.8090   -2.0200 O   0  0  0  0  0  0  0  0  0  0  0  0
  135.9490    0.7680   -0.2140 C   0  0  1  0  0  0  0  0  0  0  0  0
  134.5780    0.7670    0.2110 O   0  0  0  0  0  0  0  0  0  0  0  0
  136.8580    1.1060    0.9640 C   0  0  2  0  0  0  0  0  0  0  0  0
  136.5320    2.4180    1.4120 O   0  0  0  0  0  0  0  0  0  0  0  0
  138.3250    1.0040    0.5500 C   0  0  1  0  0  0  0  0  0  0  0  0
  139.3220    1.3060    1.6690 C   0  0  0  0  0  0  0  0  0  0  0  0
  140.9500    1.4020    0.9890 S   0  0  0  0  0  0  0  0  0  0  0  0
  140.2090    0.7460   -5.6530 C   0  0  2  0  0  0  0  0  0  0  0  0
  138.7400    0.3660   -5.8060 C   0  0  1  0  0  0  0  0  0  0  0  0
  137.9930    0.5450   -4.4900 C   0  0  2  0  0  0  0  0  0  0  0  0
  138.6970   -0.1830   -3.3470 C   0  0  1  0  0  0  0  0  0  0  0  0
  140.2050    0.0940   -3.3340 C   0  0  1  0  0  0  0  0  0  0  0  0
  140.9550   -0.8280   -2.3750 C   0  0  0  0  0  0  0  0  0  0  0  0
  138.1490    1.1800   -6.8200 O   0  0  0  0  0  0  0  0  0  0  0  0
  136.6470    0.0610   -4.6200 O   0  0  0  0  0  0  0  0  0  0  0  0
  138.1160    0.3010   -2.1360 O   0  0  0  0  0  0  0  0  0  0  0  0
  140.7740   -0.0820   -4.6360 O   0  0  0  0  0  0  0  0  0  0  0  0
  142.2580   -0.2910   -2.1100 O   0  0  0  0  0  0  0  0  0  0  0  0
  142.3590    5.6470   -6.3420 C   0  0  2  0  0  0  0  0  0  0  0  0
  141.3630    5.0970   -7.3600 C   0  0  1  0  0  0  0  0  0  0  0  0
  140.4450    4.0600   -6.7150 C   0  0  2  0  0  0  0  0  0  0  0  0
  141.2380    2.9250   -6.0870 C   0  0  1  0  0  0  0  0  0  0  0  0
  142.3670    3.4680   -5.2100 C   0  0  1  0  0  0  0  0  0  0  0  0
  143.3620    2.3590   -4.8930 C   0  0  0  0  0  0  0  0  0  0  0  0
  140.5980    6.1700   -7.9230 O   0  0  0  0  0  0  0  0  0  0  0  0
  139.5440    3.5150   -7.6840 O   0  0  0  0  0  0  0  0  0  0  0  0
  140.3320    2.1310   -5.3040 O   0  0  0  0  0  0  0  0  0  0  0  0
  143.1020    4.5340   -5.8310 O   0  0  0  0  0  0  0  0  0  0  0  0
  144.1510    2.7210   -3.7550 O   0  0  0  0  0  0  0  0  0  0  0  0
  142.2890    9.9180   -3.0170 C   0  0  2  0  0  0  0  0  0  0  0  0
  141.8040   10.0960   -4.4560 C   0  0  1  0  0  0  0  0  0  0  0  0
  141.2980    8.7840   -5.0520 C   0  0  2  0  0  0  0  0  0  0  0  0
  142.2990    7.6380   -4.8870 C   0  0  1  0  0  0  0  0  0  0  0  0
  142.7340    7.5650   -3.4220 C   0  0  1  0  0  0  0  0  0  0  0  0
  143.8330    6.5290   -3.2110 C   0  0  0  0  0  0  0  0  0  0  0  0
  140.7470   11.0610   -4.4830 O   0  0  0  0  0  0  0  0  0  0  0  0
  140.9890    8.9680   -6.4400 O   0  0  0  0  0  0  0  0  0  0  0  0
  141.7020    6.3880   -5.2940 O   0  0  0  0  0  0  0  0  0  0  0  0
  143.2210    8.8320   -2.9590 O   0  0  0  0  0  0  0  0  0  0  0  0
  144.1790    6.4670   -1.8210 O   0  0  0  0  0  0  0  0  0  0  0  0
  141.0120    2.9980    0.2090 C   0  0  2  0  0  0  0  0  0  0  0  0
  142.2470    3.2110   -0.6680 C   0  0  1  0  0  0  0  0  0  0  0  0
  143.5170    3.3860    0.1600 C   0  0  2  0  0  0  0  0  0  0  0  0
  143.3170    4.4520    1.2300 C   0  0  1  0  0  0  0  0  0  0  0  0
  142.0800    4.1230    2.0620 C   0  0  1  0  0  0  0  0  0  0  0  0
  141.7880    5.1610    3.1400 C   0  0  0  0  0  0  0  0  0  0  0  0
  142.3900    2.1230   -1.5870 O   0  0  0  0  0  0  0  0  0  0  0  0
  144.5990    3.7620   -0.7010 O   0  0  0  0  0  0  0  0  0  0  0  0
  144.4750    4.5030    2.0680 O   0  0  0  0  0  0  0  0  0  0  0  0
  140.9380    4.0270    1.2050 O   0  0  0  0  0  0  0  0  0  0  0  0
  141.7510    6.4810    2.5860 O   0  0  0  0  0  0  0  0  0  0  0  0
  145.3450    5.6150    1.8280 C   0  0  2  0  0  0  0  0  0  0  0  0
  146.7880    5.1620    2.0220 C   0  0  1  0  0  0  0  0  0  0  0  0
  147.0500    4.8310    3.4850 C   0  0  2  0  0  0  0  0  0  0  0  0
  146.6840    6.0250    4.3540 C   0  0  1  0  0  0  0  0  0  0  0  0
  145.2320    6.4160    4.1070 C   0  0  1  0  0  0  0  0  0  0  0  0
  144.8390    7.6310    4.9390 C   0  0  0  0  0  0  0  0  0  0  0  0
  147.0390    4.0140    1.2060 O   0  0  0  0  0  0  0  0  0  0  0  0
  148.4240    4.4920    3.6840 O   0  0  0  0  0  0  0  0  0  0  0  0
  146.8780    5.6980    5.7340 O   0  0  0  0  0  0  0  0  0  0  0  0
  145.0310    6.6980    2.7160 O   0  0  0  0  0  0  0  0  0  0  0  0
  143.5070    8.0480    4.6200 O   0  0  0  0  0  0  0  0  0  0  0  0
  139.1765   11.4519    2.3020 H   0  0  0  0  0  0  0  0  0  0  0  0
  139.6522   12.7221    0.2586 H   0  0  0  0  0  0  0  0  0  0  0  0
  138.8929   10.1946   -1.2653 H   0  0  0  0  0  0  0  0  0  0  0  0
  141.6504   11.4686   -1.1993 H   0  0  0  0  0  0  0  0  0  0  0  0
  140.9211    8.9070    0.2555 H   0  0  0  0  0  0  0  0  0  0  0  0
  143.1090    9.9638    1.5158 H   0  0  0  0  0  0  0  0  0  0  0  0
  143.3595   10.5887   -0.1496 H   0  0  0  0  0  0  0  0  0  0  0  0
  137.2356   11.2034    0.0559 H   0  0  0  0  0  0  0  0  0  0  0  0
  139.5890   11.5437   -3.0139 H   0  0  0  0  0  0  0  0  0  0  0  0
  143.1180    8.3943   -0.8775 H   0  0  0  0  0  0  0  0  0  0  0  0
  135.5917    7.1887    4.6578 H   0  0  0  0  0  0  0  0  0  0  0  0
  135.3745    9.5123    3.7925 H   0  0  0  0  0  0  0  0  0  0  0  0
  136.4783    8.3702    1.1846 H   0  0  0  0  0  0  0  0  0  0  0  0
  137.7852   10.3913    3.0546 H   0  0  0  0  0  0  0  0  0  0  0  0
  138.5577    7.4688    2.6653 H   0  0  0  0  0  0  0  0  0  0  0  0
  140.4907    8.8588    3.1624 H   0  0  0  0  0  0  0  0  0  0  0  0
  140.0542    7.9055    4.6210 H   0  0  0  0  0  0  0  0  0  0  0  0
  133.8401    8.9657    2.1460 H   0  0  0  0  0  0  0  0  0  0  0  0
  135.7928   11.0148    2.0381 H   0  0  0  0  0  0  0  0  0  0  0  0
  138.9538    9.8068    5.3838 H   0  0  0  0  0  0  0  0  0  0  0  0
  135.4483    1.4146    2.8557 H   0  0  0  0  0  0  0  0  0  0  0  0
  134.0122    3.3154    3.4725 H   0  0  0  0  0  0  0  0  0  0  0  0
  135.4723    4.8009    1.2407 H   0  0  0  0  0  0  0  0  0  0  0  0
  135.4573    5.2730    4.2644 H   0  0  0  0  0  0  0  0  0  0  0  0
  137.6867    4.2118    2.4697 H   0  0  0  0  0  0  0  0  0  0  0  0
  138.4924    5.6152    4.3516 H   0  0  0  0  0  0  0  0  0  0  0  0
  138.9561    3.8891    4.5314 H   0  0  0  0  0  0  0  0  0  0  0  0
  134.1024    2.9024    0.6503 H   0  0  0  0  0  0  0  0  0  0  0  0
  134.1153    6.5131    2.0327 H   0  0  0  0  0  0  0  0  0  0  0  0
  138.0902    4.7947    6.4854 H   0  0  0  0  0  0  0  0  0  0  0  0
  138.0893   -1.6573   -1.4450 H   0  0  0  0  0  0  0  0  0  0  0  0
  136.0707   -1.3734   -0.0856 H   0  0  0  0  0  0  0  0  0  0  0  0
  135.8148   -0.1391   -2.6546 H   0  0  0  0  0  0  0  0  0  0  0  0
  136.0768    1.5384   -0.9887 H   0  0  0  0  0  0  0  0  0  0  0  0
  134.3612    1.6155    0.5793 H   0  0  0  0  0  0  0  0  0  0  0  0
  136.6740    0.3923    1.7805 H   0  0  0  0  0  0  0  0  0  0  0  0
  138.5024    1.7194   -0.2665 H   0  0  0  0  0  0  0  0  0  0  0  0
  139.2845    0.5042    2.4211 H   0  0  0  0  0  0  0  0  0  0  0  0
  139.0642    2.2650    2.1422 H   0  0  0  0  0  0  0  0  0  0  0  0
  140.7347    0.5690   -6.6029 H   0  0  0  0  0  0  0  0  0  0  0  0
  138.6743   -0.6895   -6.1087 H   0  0  0  0  0  0  0  0  0  0  0  0
  137.9609    1.6184   -4.2517 H   0  0  0  0  0  0  0  0  0  0  0  0
  138.5309   -1.2663   -3.4407 H   0  0  0  0  0  0  0  0  0  0  0  0
  140.3574    1.1356   -3.0149 H   0  0  0  0  0  0  0  0  0  0  0  0
  141.0556   -1.8248   -2.8293 H   0  0  0  0  0  0  0  0  0  0  0  0
  140.3943   -0.9096   -1.4322 H   0  0  0  0  0  0  0  0  0  0  0  0
  138.1924    2.0921   -6.5576 H   0  0  0  0  0  0  0  0  0  0  0  0
  136.1758    0.2174   -3.8100 H   0  0  0  0  0  0  0  0  0  0  0  0
  142.1707    0.5696   -1.7174 H   0  0  0  0  0  0  0  0  0  0  0  0
  143.0517    6.3299   -6.8556 H   0  0  0  0  0  0  0  0  0  0  0  0
  141.9250    4.6068   -8.1686 H   0  0  0  0  0  0  0  0  0  0  0  0
  139.8606    4.5582   -5.9274 H   0  0  0  0  0  0  0  0  0  0  0  0
  141.6746    2.3031   -6.8824 H   0  0  0  0  0  0  0  0  0  0  0  0
  141.9258    3.8412   -4.2740 H   0  0  0  0  0  0  0  0  0  0  0  0
  144.0219    2.2028   -5.7591 H   0  0  0  0  0  0  0  0  0  0  0  0
  142.8150    1.4295   -4.6764 H   0  0  0  0  0  0  0  0  0  0  0  0
  140.0104    5.8251   -8.5851 H   0  0  0  0  0  0  0  0  0  0  0  0
  140.0394    3.0593   -8.3544 H   0  0  0  0  0  0  0  0  0  0  0  0
  144.6247    3.5231   -3.9417 H   0  0  0  0  0  0  0  0  0  0  0  0
  142.7957   10.8403   -2.6967 H   0  0  0  0  0  0  0  0  0  0  0  0
  142.6426   10.4607   -5.0673 H   0  0  0  0  0  0  0  0  0  0  0  0
  140.3745    8.5054   -4.5233 H   0  0  0  0  0  0  0  0  0  0  0  0
  143.1796    7.8341   -5.5163 H   0  0  0  0  0  0  0  0  0  0  0  0
  141.8591    7.2797   -2.8195 H   0  0  0  0  0  0  0  0  0  0  0  0
  144.7201    6.8128   -3.7962 H   0  0  0  0  0  0  0  0  0  0  0  0
  143.4748    5.5433   -3.5428 H   0  0  0  0  0  0  0  0  0  0  0  0
  140.0131   10.7395   -3.9726 H   0  0  0  0  0  0  0  0  0  0  0  0
  140.6107    8.1689   -6.7877 H   0  0  0  0  0  0  0  0  0  0  0  0
  144.4889    7.3182   -1.5347 H   0  0  0  0  0  0  0  0  0  0  0  0
  140.1281    3.0827   -0.4403 H   0  0  0  0  0  0  0  0  0  0  0  0
  142.0946    4.1329   -1.2483 H   0  0  0  0  0  0  0  0  0  0  0  0
  143.7598    2.4310    0.6489 H   0  0  0  0  0  0  0  0  0  0  0  0
  143.1765    5.4301    0.7468 H   0  0  0  0  0  0  0  0  0  0  0  0
  142.2449    3.1519    2.5517 H   0  0  0  0  0  0  0  0  0  0  0  0
  142.5756    5.1148    3.9065 H   0  0  0  0  0  0  0  0  0  0  0  0
  140.8145    4.9370    3.6006 H   0  0  0  0  0  0  0  0  0  0  0  0
  142.5559    1.3218   -1.1042 H   0  0  0  0  0  0  0  0  0  0  0  0
  144.3976    4.5921   -1.1168 H   0  0  0  0  0  0  0  0  0  0  0  0
  142.5911    6.6807    2.1901 H   0  0  0  0  0  0  0  0  0  0  0  0
  145.2126    5.9583    0.7914 H   0  0  0  0  0  0  0  0  0  0  0  0
  147.4626    5.9750    1.7154 H   0  0  0  0  0  0  0  0  0  0  0  0
  146.4260    3.9722    3.7733 H   0  0  0  0  0  0  0  0  0  0  0  0
  147.3334    6.8733    4.0920 H   0  0  0  0  0  0  0  0  0  0  0  0
  144.5888    5.5713    4.3946 H   0  0  0  0  0  0  0  0  0  0  0  0
  145.5365    8.4550    4.7281 H   0  0  0  0  0  0  0  0  0  0  0  0
  144.8909    7.3708    6.0065 H   0  0  0  0  0  0  0  0  0  0  0  0
  146.4657    3.3053    1.4735 H   0  0  0  0  0  0  0  0  0  0  0  0
  148.6471    3.7463    3.1394 H   0  0  0  0  0  0  0  0  0  0  0  0
  147.7855    5.4561    5.8764 H   0  0  0  0  0  0  0  0  0  0  0  0
  143.4597    8.2758    3.6989 H   0  0  0  0  0  0  0  0  0  0  0  0
  1  2  1  0  0  0  0
  1 10  1  0  0  0  0
  1100  1  1  0  0  0
  2  3  1  0  0  0  0
  2  7  1  0  0  0  0
  2101  1  1  0  0  0
  3  4  1  0  0  0  0
  3  8  1  0  0  0  0
  3102  1  6  0  0  0
  4  9  1  0  0  0  0
  4103  1  6  0  0  0
  5  4  1  0  0  0  0
  5  6  1  0  0  0  0
  5104  1  1  0  0  0
  6 11  1  0  0  0  0
  6105  1  0  0  0  0
  6106  1  0  0  0  0
  7107  1  0  0  0  0
  8108  1  0  0  0  0
  9 67  1  0  0  0  0
 10  5  1  0  0  0  0
 11109  1  0  0  0  0
 12 13  1  0  0  0  0
 12 21  1  0  0  0  0
 12110  1  1  0  0  0
 13 14  1  0  0  0  0
 13 18  1  0  0  0  0
 13111  1  1  0  0  0
 14 15  1  0  0  0  0
 14 19  1  0  0  0  0
 14112  1  6  0  0  0
 15 20  1  0  0  0  0
 15113  1  1  0  0  0
 16 15  1  0  0  0  0
 16 17  1  0  0  0  0
 16114  1  6  0  0  0
 17 22  1  0  0  0  0
 17115  1  0  0  0  0
 17116  1  0  0  0  0
 18117  1  0  0  0  0
 19118  1  0  0  0  0
 20  1  1  0  0  0  0
 21 16  1  0  0  0  0
 22119  1  0  0  0  0
 23 24  1  0  0  0  0
 23 32  1  0  0  0  0
 23120  1  1  0  0  0
 24 25  1  0  0  0  0
 24 29  1  0  0  0  0
 24121  1  1  0  0  0
 25 26  1  0  0  0  0
 25 30  1  0  0  0  0
 25122  1  6  0  0  0
 26 31  1  0  0  0  0
 26123  1  1  0  0  0
 27 26  1  0  0  0  0
 27 28  1  0  0  0  0
 27124  1  6  0  0  0
 28 33  1  0  0  0  0
 28125  1  0  0  0  0
 28126  1  0  0  0  0
 29127  1  0  0  0  0
 30128  1  0  0  0  0
 31 12  1  0  0  0  0
 32 27  1  0  0  0  0
 33129  1  0  0  0  0
 34 35  1  0  0  0  0
 34 36  1  0  0  0  0
 34130  1  6  0  0  0
 35 42  1  0  0  0  0
 36 37  1  0  0  0  0
 36 38  1  0  0  0  0
 36131  1  1  0  0  0
 37132  1  0  0  0  0
 38 39  1  0  0  0  0
 38 40  1  0  0  0  0
 38133  1  6  0  0  0
 39134  1  0  0  0  0
 40 41  1  0  0  0  0
 40135  1  1  0  0  0
 41 23  1  0  0  0  0
 42 40  1  0  0  0  0
 42 43  1  0  0  0  0
 42136  1  6  0  0  0
 43 44  1  0  0  0  0
 43137  1  0  0  0  0
 43138  1  0  0  0  0
 44 78  1  0  0  0  0
 45 46  1  0  0  0  0
 45 54  1  0  0  0  0
 45139  1  6  0  0  0
 46 47  1  0  0  0  0
 46 51  1  0  0  0  0
 46140  1  6  0  0  0
 47 48  1  0  0  0  0
 47 52  1  0  0  0  0
 47141  1  1  0  0  0
 48 53  1  0  0  0  0
 48142  1  6  0  0  0
 49 48  1  0  0  0  0
 49 50  1  0  0  0  0
 49143  1  1  0  0  0
 50 55  1  0  0  0  0
 50144  1  0  0  0  0
 50145  1  0  0  0  0
 51146  1  0  0  0  0
 52147  1  0  0  0  0
 53 34  1  0  0  0  0
 54 49  1  0  0  0  0
 55148  1  0  0  0  0
 56 65  1  0  0  0  0
 56 75  1  0  0  0  0
 56149  1  6  0  0  0
 57 56  1  0  0  0  0
 57 62  1  0  0  0  0
 57150  1  6  0  0  0
 58 57  1  0  0  0  0
 58 63  1  0  0  0  0
 58151  1  1  0  0  0
 59 58  1  0  0  0  0
 59 60  1  0  0  0  0
 59 64  1  0  0  0  0
 59152  1  6  0  0  0
 60 61  1  0  0  0  0
 60 65  1  0  0  0  0
 60153  1  1  0  0  0
 61 66  1  0  0  0  0
 61154  1  0  0  0  0
 61155  1  0  0  0  0
 62156  1  0  0  0  0
 63157  1  0  0  0  0
 64 45  1  0  0  0  0
 66158  1  0  0  0  0
 67 68  1  0  0  0  0
 67 76  1  0  0  0  0
 67159  1  1  0  0  0
 68 69  1  0  0  0  0
 68 73  1  0  0  0  0
 68160  1  6  0  0  0
 69 70  1  0  0  0  0
 69 74  1  0  0  0  0
 69161  1  1  0  0  0
 70 71  1  0  0  0  0
 70 75  1  0  0  0  0
 70162  1  6  0  0  0
 71 72  1  0  0  0  0
 71 76  1  0  0  0  0
 71163  1  1  0  0  0
 72 77  1  0  0  0  0
 72164  1  0  0  0  0
 72165  1  0  0  0  0
 73166  1  0  0  0  0
 74167  1  0  0  0  0
 77168  1  0  0  0  0
 78 79  1  0  0  0  0
 78 87  1  0  0  0  0
 78169  1  6  0  0  0
 79 80  1  0  0  0  0
 79 84  1  0  0  0  0
 79170  1  6  0  0  0
 80 81  1  0  0  0  0
 80 85  1  0  0  0  0
 80171  1  1  0  0  0
 81 82  1  0  0  0  0
 81 86  1  0  0  0  0
 81172  1  6  0  0  0
 82 83  1  0  0  0  0
 82 87  1  0  0  0  0
 82173  1  1  0  0  0
 83 88  1  0  0  0  0
 83174  1  0  0  0  0
 83175  1  0  0  0  0
 84176  1  0  0  0  0
 85177  1  0  0  0  0
 86 89  1  0  0  0  0
 88178  1  0  0  0  0
 89 90  1  0  0  0  0
 89 98  1  0  0  0  0
 89179  1  6  0  0  0
 90 91  1  0  0  0  0
 90 95  1  0  0  0  0
 90180  1  6  0  0  0
 91 92  1  0  0  0  0
 91 96  1  0  0  0  0
 91181  1  1  0  0  0
 92 93  1  0  0  0  0
 92 97  1  0  0  0  0
 92182  1  6  0  0  0
 93 94  1  0  0  0  0
 93 98  1  0  0  0  0
 93183  1  1  0  0  0
 94 99  1  0  0  0  0
 94184  1  0  0  0  0
 94185  1  0  0  0  0
 95186  1  0  0  0  0
 96187  1  0  0  0  0
 97188  1  0  0  0  0
 99189  1  0  0  0  0
M  END
