4j4n_ligand
 OpenBabel08222323353D

 38 40  0  0  0  0  0  0  0  0999 V2000
   -9.0660   11.8840  -30.5610 O   0  0  0  0  0  0  0  0  0  0  0  0
   -9.1310   10.9730  -29.7580 C   0  0  0  0  0  0  0  0  0  0  0  0
   -9.2290    9.6750  -30.0920 N   0  0  0  0  0  0  0  0  0  0  0  0
   -9.2620    9.1960  -31.4270 C   0  0  0  0  0  0  0  0  0  0  0  0
   -8.4490    9.7780  -32.4150 C   0  0  0  0  0  0  0  0  0  0  0  0
   -8.4580    9.3310  -33.7430 C   0  0  0  0  0  0  0  0  0  0  0  0
   -9.2900    8.2770  -34.1050 C   0  0  0  0  0  0  0  0  0  0  0  0
  -10.1040    7.6880  -33.1360 C   0  0  0  0  0  0  0  0  0  0  0  0
  -10.0990    8.1310  -31.8000 C   0  0  0  0  0  0  0  0  0  0  0  0
  -11.0030    7.4550  -30.7730 C   0  0  0  0  0  0  0  0  0  0  0  0
  -11.9210    6.4070  -31.3740 C   0  0  0  0  0  0  0  0  0  0  0  0
   -9.1200   11.3560  -28.3000 C   0  0  0  0  0  0  0  0  0  0  0  0
   -8.7280   10.0240  -27.2170 S   0  0  0  0  0  0  0  0  0  0  0  0
  -10.0670    8.9380  -27.0480 C   0  0  0  0  0  0  0  0  0  0  0  0
   -9.9110    7.7310  -26.4940 N   0  0  0  0  0  0  0  0  0  0  0  0
  -11.1510    7.2200  -26.5650 C   0  0  0  0  0  0  0  0  0  0  0  0
  -11.5430    5.9950  -26.1350 N   0  0  0  0  0  0  0  0  0  0  0  0
  -12.8210    5.6320  -26.2800 C   0  0  0  0  0  0  0  0  0  0  0  0
  -13.7410    6.4990  -26.8670 C   0  0  0  0  0  0  0  0  0  0  0  0
  -13.3470    7.7570  -27.3190 C   0  0  0  0  0  0  0  0  0  0  0  0
  -12.0170    8.1320  -27.1590 C   0  0  0  0  0  0  0  0  0  0  0  0
  -11.3030    9.2400  -27.4680 N   0  0  0  0  0  0  0  0  0  0  0  0
   -9.2820    9.0040  -29.3524 H   0  0  0  0  0  0  0  0  0  0  0  0
   -7.7949   10.5979  -32.1411 H   0  0  0  0  0  0  0  0  0  0  0  0
   -7.8214    9.8031  -34.4825 H   0  0  0  0  0  0  0  0  0  0  0  0
   -9.3062    7.9172  -35.1274 H   0  0  0  0  0  0  0  0  0  0  0  0
  -10.7558    6.8695  -33.4193 H   0  0  0  0  0  0  0  0  0  0  0  0
  -11.6225    8.2266  -30.2925 H   0  0  0  0  0  0  0  0  0  0  0  0
  -10.3689    6.9701  -30.0162 H   0  0  0  0  0  0  0  0  0  0  0  0
  -12.5404    5.9636  -30.5804 H   0  0  0  0  0  0  0  0  0  0  0  0
  -11.3173    5.6205  -31.8504 H   0  0  0  0  0  0  0  0  0  0  0  0
  -12.5709    6.8771  -32.1268 H   0  0  0  0  0  0  0  0  0  0  0  0
  -10.1171   11.7369  -28.0341 H   0  0  0  0  0  0  0  0  0  0  0  0
   -8.3734   12.1509  -28.1560 H   0  0  0  0  0  0  0  0  0  0  0  0
   -9.0568    7.3021  -26.1103 H   0  0  0  0  0  0  0  0  0  0  0  0
  -13.1447    4.6555  -25.9384 H   0  0  0  0  0  0  0  0  0  0  0  0
  -14.7750    6.1912  -26.9732 H   0  0  0  0  0  0  0  0  0  0  0  0
  -14.0603    8.4276  -27.7844 H   0  0  0  0  0  0  0  0  0  0  0  0
  1  2  2  0  0  0  0
  2  3  1  0  0  0  0
  2 12  1  0  0  0  0
  3  4  1  0  0  0  0
  3 23  1  0  0  0  0
  4  5  2  0  0  0  0
  4  9  1  0  0  0  0
  5  6  1  0  0  0  0
  5 24  1  0  0  0  0
  6  7  2  0  0  0  0
  6 25  1  0  0  0  0
  7  8  1  0  0  0  0
  7 26  1  0  0  0  0
  8  9  2  0  0  0  0
  8 27  1  0  0  0  0
  9 10  1  0  0  0  0
 10 11  1  0  0  0  0
 10 28  1  0  0  0  0
 10 29  1  0  0  0  0
 11 30  1  0  0  0  0
 11 31  1  0  0  0  0
 11 32  1  0  0  0  0
 12 13  1  0  0  0  0
 12 33  1  0  0  0  0
 12 34  1  0  0  0  0
 13 14  1  0  0  0  0
 14 15  1  0  0  0  0
 14 22  2  0  0  0  0
 15 16  1  0  0  0  0
 15 35  1  0  0  0  0
 16 17  2  0  0  0  0
 16 21  1  0  0  0  0
 17 18  1  0  0  0  0
 18 19  2  0  0  0  0
 18 36  1  0  0  0  0
 19 20  1  0  0  0  0
 19 37  1  0  0  0  0
 20 21  2  0  0  0  0
 20 38  1  0  0  0  0
 21 22  1  0  0  0  0
M  END
