4j53_ligand
 OpenBabel08222323353D

 75 79  0  0  1  0  0  0  0  0999 V2000
   51.0580   11.3520   31.0740 O   0  0  0  0  0  0  0  0  0  0  0  0
   50.5810   11.2080   32.1790 C   0  0  0  0  0  0  0  0  0  0  0  0
   51.3450   10.9450   33.2460 N   0  0  0  0  0  0  0  0  0  0  0  0
   52.8080   10.8340   33.2340 C   0  0  1  0  0  0  0  0  0  0  0  0
   53.3570   12.0100   34.0400 C   0  0  0  0  0  0  0  0  0  0  0  0
   54.8580   11.8870   34.2810 C   0  0  0  0  0  0  0  0  0  0  0  0
   55.1960   10.6100   34.9330 N   0  3  2  0  0  0  0  0  0  0  0  0
   56.6620   10.5090   35.1010 C   0  0  0  0  0  0  0  0  0  0  0  0
   54.7010    9.4710   34.1330 C   0  0  0  0  0  0  0  0  0  0  0  0
   53.1860    9.5450   33.9560 C   0  0  0  0  0  0  0  0  0  0  0  0
   49.0810   11.2980   32.3360 C   0  0  0  0  0  0  0  0  0  0  0  0
   48.2710   10.5160   31.5070 C   0  0  0  0  0  0  0  0  0  0  0  0
   46.8740   10.5570   31.6280 C   0  0  0  0  0  0  0  0  0  0  0  0
   46.0670    9.7880   30.8160 O   0  0  0  0  0  0  0  0  0  0  0  0
   46.3230    8.4080   30.5410 C   0  0  0  0  0  0  0  0  0  0  0  0
   48.4700   12.1330   33.2810 C   0  0  0  0  0  0  0  0  0  0  0  0
   49.1810   12.9220   34.1120 F   0  0  0  0  0  0  0  0  0  0  0  0
   47.0830   12.1710   33.3910 C   0  0  0  0  0  0  0  0  0  0  0  0
   46.2700   11.3880   32.5680 C   0  0  0  0  0  0  0  0  0  0  0  0
   44.9100   11.3330   32.6530 N   0  0  0  0  0  0  0  0  0  0  0  0
   44.1140   11.8970   33.6060 C   0  0  0  0  0  0  0  0  0  0  0  0
   42.7820   11.7280   33.4670 N   0  0  0  0  0  0  0  0  0  0  0  0
   41.9170   12.2540   34.3240 C   0  0  0  0  0  0  0  0  0  0  0  0
   42.3690   12.9840   35.4180 C   0  0  0  0  0  0  0  0  0  0  0  0
   41.4050   13.5860   36.2650 N   0  0  0  0  0  0  0  0  0  0  0  0
   40.2360   14.1190   35.5470 C   0  0  0  0  0  0  0  0  0  0  0  0
   41.4980   13.7860   37.5920 C   0  0  0  0  0  0  0  0  0  0  0  0
   40.5760   14.3630   38.1640 O   0  0  0  0  0  0  0  0  0  0  0  0
   44.5830   12.6080   34.6520 N   0  0  0  0  0  0  0  0  0  0  0  0
   43.7490   13.1800   35.5530 C   0  0  0  0  0  0  0  0  0  0  0  0
   44.2670   13.9240   36.6490 N   0  0  0  0  0  0  0  0  0  0  0  0
   44.0210   13.1510   37.8750 C   0  0  0  0  0  0  0  0  0  0  0  0
   42.6290   13.3160   38.4840 C   0  0  0  0  0  0  0  0  0  0  0  0
   42.7160   14.1890   39.4740 F   0  0  0  0  0  0  0  0  0  0  0  0
   42.3060   12.1350   38.9790 F   0  0  0  0  0  0  0  0  0  0  0  0
   45.7070   14.3130   36.5210 C   0  0  0  0  0  0  0  0  0  0  0  0
   46.0100   15.5460   37.3760 C   0  0  0  0  0  0  0  0  0  0  0  0
   47.3040   15.3080   38.1360 C   0  0  0  0  0  0  0  0  0  0  0  0
   47.6230   13.8280   38.0240 C   0  0  0  0  0  0  0  0  0  0  0  0
   46.7380   13.2490   36.9280 C   0  0  0  0  0  0  0  0  0  0  0  0
   50.8813   10.8135   34.1222 H   0  0  0  0  0  0  0  0  0  0  0  0
   53.1994   10.8399   32.2060 H   0  0  0  0  0  0  0  0  0  0  0  0
   52.8431   12.0450   35.0119 H   0  0  0  0  0  0  0  0  0  0  0  0
   53.1612   12.9410   33.4879 H   0  0  0  0  0  0  0  0  0  0  0  0
   55.1858   12.7156   34.9259 H   0  0  0  0  0  0  0  0  0  0  0  0
   55.3813   11.9449   33.3152 H   0  0  0  0  0  0  0  0  0  0  0  0
   54.7595   10.5827   35.8412 H   0  0  0  0  0  0  0  0  0  0  0  0
   56.9103    9.5545   35.5880 H   0  0  0  0  0  0  0  0  0  0  0  0
   57.0179   11.3423   35.7247 H   0  0  0  0  0  0  0  0  0  0  0  0
   57.1481   10.5550   34.1153 H   0  0  0  0  0  0  0  0  0  0  0  0
   54.9579    8.5324   34.6458 H   0  0  0  0  0  0  0  0  0  0  0  0
   55.1803    9.4912   33.1431 H   0  0  0  0  0  0  0  0  0  0  0  0
   52.8458    8.6826   33.3640 H   0  0  0  0  0  0  0  0  0  0  0  0
   52.7024    9.5254   34.9438 H   0  0  0  0  0  0  0  0  0  0  0  0
   48.7268    9.8719   30.7637 H   0  0  0  0  0  0  0  0  0  0  0  0
   45.5428    8.0167   29.8715 H   0  0  0  0  0  0  0  0  0  0  0  0
   46.3172    7.8393   31.4825 H   0  0  0  0  0  0  0  0  0  0  0  0
   47.3058    8.3066   30.0574 H   0  0  0  0  0  0  0  0  0  0  0  0
   46.6253   12.8201   34.1288 H   0  0  0  0  0  0  0  0  0  0  0  0
   44.4283   10.8044   31.9117 H   0  0  0  0  0  0  0  0  0  0  0  0
   40.8530   12.1142   34.1710 H   0  0  0  0  0  0  0  0  0  0  0  0
   40.3165   13.8690   34.4788 H   0  0  0  0  0  0  0  0  0  0  0  0
   40.1996   15.2119   35.6660 H   0  0  0  0  0  0  0  0  0  0  0  0
   39.3183   13.6744   35.9595 H   0  0  0  0  0  0  0  0  0  0  0  0
   44.7601   13.4633   38.6275 H   0  0  0  0  0  0  0  0  0  0  0  0
   44.1647   12.0861   37.6397 H   0  0  0  0  0  0  0  0  0  0  0  0
   45.8792   14.5606   35.4632 H   0  0  0  0  0  0  0  0  0  0  0  0
   45.1884   15.7133   38.0880 H   0  0  0  0  0  0  0  0  0  0  0  0
   46.1188   16.4280   36.7277 H   0  0  0  0  0  0  0  0  0  0  0  0
   47.1779   15.5877   39.1923 H   0  0  0  0  0  0  0  0  0  0  0  0
   48.1162   15.9033   37.6935 H   0  0  0  0  0  0  0  0  0  0  0  0
   47.4137   13.3256   38.9799 H   0  0  0  0  0  0  0  0  0  0  0  0
   48.6826   13.6912   37.7621 H   0  0  0  0  0  0  0  0  0  0  0  0
   47.3543   12.9776   36.0582 H   0  0  0  0  0  0  0  0  0  0  0  0
   46.2196   12.3545   37.3036 H   0  0  0  0  0  0  0  0  0  0  0  0
  1  2  2  0  0  0  0
  2  3  1  0  0  0  0
  2 11  1  0  0  0  0
  3  4  1  0  0  0  0
  3 41  1  0  0  0  0
  4  5  1  0  0  0  0
  4 10  1  0  0  0  0
  4 42  1  6  0  0  0
  5  6  1  0  0  0  0
  5 43  1  0  0  0  0
  5 44  1  0  0  0  0
  6  7  1  0  0  0  0
  6 45  1  0  0  0  0
  6 46  1  0  0  0  0
  7  8  1  0  0  0  0
  7  9  1  0  0  0  0
  7 47  1  1  0  0  0
  8 48  1  0  0  0  0
  8 49  1  0  0  0  0
  8 50  1  0  0  0  0
  9 10  1  0  0  0  0
  9 51  1  0  0  0  0
  9 52  1  0  0  0  0
 10 53  1  0  0  0  0
 10 54  1  0  0  0  0
 11 12  2  0  0  0  0
 11 16  1  0  0  0  0
 12 13  1  0  0  0  0
 12 55  1  0  0  0  0
 13 14  1  0  0  0  0
 13 19  2  0  0  0  0
 14 15  1  0  0  0  0
 15 56  1  0  0  0  0
 15 57  1  0  0  0  0
 15 58  1  0  0  0  0
 16 17  1  0  0  0  0
 16 18  2  0  0  0  0
 18 19  1  0  0  0  0
 18 59  1  0  0  0  0
 19 20  1  0  0  0  0
 20 21  1  0  0  0  0
 20 60  1  0  0  0  0
 21 22  2  0  0  0  0
 21 29  1  0  0  0  0
 22 23  1  0  0  0  0
 23 24  2  0  0  0  0
 23 61  1  0  0  0  0
 24 25  1  0  0  0  0
 24 30  1  0  0  0  0
 25 26  1  0  0  0  0
 25 27  1  0  0  0  0
 26 62  1  0  0  0  0
 26 63  1  0  0  0  0
 26 64  1  0  0  0  0
 27 28  2  0  0  0  0
 27 33  1  0  0  0  0
 29 30  2  0  0  0  0
 30 31  1  0  0  0  0
 31 32  1  0  0  0  0
 31 36  1  0  0  0  0
 32 33  1  0  0  0  0
 32 65  1  0  0  0  0
 32 66  1  0  0  0  0
 33 34  1  0  0  0  0
 33 35  1  0  0  0  0
 36 37  1  0  0  0  0
 36 40  1  0  0  0  0
 36 67  1  0  0  0  0
 37 38  1  0  0  0  0
 37 68  1  0  0  0  0
 37 69  1  0  0  0  0
 38 39  1  0  0  0  0
 38 70  1  0  0  0  0
 38 71  1  0  0  0  0
 39 40  1  0  0  0  0
 39 72  1  0  0  0  0
 39 73  1  0  0  0  0
 40 74  1  0  0  0  0
 40 75  1  0  0  0  0
M  CHG  1   7   1
M  END
