4j70_ligand
 OpenBabel08222323353D

 86 88  0  0  1  0  0  0  0  0999 V2000
   17.8480 -146.5350   12.4500 C   0  0  0  0  0  0  0  0  0  0  0  0
   17.1210 -147.3660   12.9860 O   0  0  0  0  0  0  0  0  0  0  0  0
   18.2000 -146.6020   11.1220 O   0  0  0  0  0  0  0  0  0  0  0  0
   19.4880 -146.0480   10.7410 C   0  0  0  0  0  0  0  0  0  0  0  0
   19.9160 -146.6370    9.4100 C   0  0  0  0  0  0  0  0  0  0  0  0
   19.7910 -145.8600    8.2530 C   0  0  0  0  0  0  0  0  0  0  0  0
   20.2650 -146.3910    7.0530 C   0  0  0  0  0  0  0  0  0  0  0  0
   20.8470 -147.6780    7.0260 C   0  0  0  0  0  0  0  0  0  0  0  0
   20.9790 -148.4460    8.1880 C   0  0  0  0  0  0  0  0  0  0  0  0
   20.5010 -147.9080    9.3840 C   0  0  0  0  0  0  0  0  0  0  0  0
   18.3430 -145.4720   13.1660 N   0  0  0  0  0  0  0  0  0  0  0  0
   17.5760 -144.2200   13.3680 C   0  0  2  0  0  0  0  0  0  0  0  0
   18.1000 -143.0410   12.4730 C   0  0  0  0  0  0  0  0  0  0  0  0
   18.6120 -143.3220   11.3950 O   0  0  0  0  0  0  0  0  0  0  0  0
   17.4240 -144.0060   14.9130 C   0  0  0  0  0  0  0  0  0  0  0  0
   12.6670 -141.1110   12.8060 N   0  0  0  0  0  0  0  0  0  0  0  0
   13.7610 -141.9010   13.3150 C   0  0  1  0  0  0  0  0  0  0  0  0
   14.4500 -142.8330   12.3040 C   0  0  0  0  0  0  0  0  0  0  0  0
   15.2340 -141.6470   12.9270 C   0  0  1  0  0  0  0  0  0  0  0  0
   15.7590 -140.5720   11.9160 C   0  0  0  0  0  0  0  0  0  0  0  0
   17.3170 -140.7350   11.7490 C   0  0  1  0  0  0  0  0  0  0  0  0
   18.0500 -139.3800   11.8030 C   0  0  0  0  0  0  0  0  0  0  0  0
   18.2830 -138.5330   10.5480 C   0  0  0  0  0  0  0  0  0  0  0  0
   19.4010 -137.4480   10.6360 C   0  0  0  0  0  0  0  0  0  0  0  0
   19.6660 -136.6740   11.7840 C   0  0  0  0  0  0  0  0  0  0  0  0
   20.8570 -135.9310   11.9300 C   0  0  0  0  0  0  0  0  0  0  0  0
   21.8390 -135.8730   10.9190 C   0  0  0  0  0  0  0  0  0  0  0  0
   21.6160 -136.5820    9.7230 C   0  0  0  0  0  0  0  0  0  0  0  0
   20.4170 -137.3460    9.5420 C   0  0  0  0  0  0  0  0  0  0  0  0
   17.8910 -141.7080   12.7350 N   0  0  0  0  0  0  0  0  0  0  0  0
   13.4900 -137.8060   11.5530 O   0  0  0  0  0  0  0  0  0  0  0  0
   12.3380 -138.4430   11.7090 C   0  0  0  0  0  0  0  0  0  0  0  0
   11.4760 -138.3210   12.9820 C   0  0  1  0  0  0  0  0  0  0  0  0
   10.3960 -137.2070   12.8050 C   0  0  2  0  0  0  0  0  0  0  0  0
   10.9440 -135.8290   12.2980 C   0  0  0  0  0  0  0  0  0  0  0  0
   12.1920 -135.3040   13.0660 C   0  0  0  0  0  0  0  0  0  0  0  0
    9.5610 -136.9480   14.0870 C   0  0  0  0  0  0  0  0  0  0  0  0
   10.8150 -139.6600   13.4010 C   0  0  1  0  0  0  0  0  0  0  0  0
   10.0800 -140.2840   12.3380 O   0  0  0  0  0  0  0  0  0  0  0  0
   11.8920 -140.6050   13.7840 C   0  0  0  0  0  0  0  0  0  0  0  0
   12.0560 -140.8180   14.9690 O   0  0  0  0  0  0  0  0  0  0  0  0
   20.2356 -146.2953   11.5091 H   0  0  0  0  0  0  0  0  0  0  0  0
   19.4047 -144.9551   10.6488 H   0  0  0  0  0  0  0  0  0  0  0  0
   19.3395 -144.8751    8.2880 H   0  0  0  0  0  0  0  0  0  0  0  0
   20.1865 -145.8142    6.1385 H   0  0  0  0  0  0  0  0  0  0  0  0
   21.1995 -148.0799    6.0830 H   0  0  0  0  0  0  0  0  0  0  0  0
   21.4379 -149.4277    8.1604 H   0  0  0  0  0  0  0  0  0  0  0  0
   20.5837 -148.4800   10.3011 H   0  0  0  0  0  0  0  0  0  0  0  0
   19.2563 -145.5459   13.5664 H   0  0  0  0  0  0  0  0  0  0  0  0
   16.5572 -144.4103   12.9994 H   0  0  0  0  0  0  0  0  0  0  0  0
   16.8575 -143.0821   15.1012 H   0  0  0  0  0  0  0  0  0  0  0  0
   18.4205 -143.9249   15.3718 H   0  0  0  0  0  0  0  0  0  0  0  0
   16.8873 -144.8607   15.3505 H   0  0  0  0  0  0  0  0  0  0  0  0
   12.5019 -140.9558   11.8320 H   0  0  0  0  0  0  0  0  0  0  0  0
   13.5293 -142.2396   14.3356 H   0  0  0  0  0  0  0  0  0  0  0  0
   14.1604 -142.8042   11.2432 H   0  0  0  0  0  0  0  0  0  0  0  0
   14.6979 -143.8662   12.5886 H   0  0  0  0  0  0  0  0  0  0  0  0
   16.0030 -141.8134   13.6957 H   0  0  0  0  0  0  0  0  0  0  0  0
   15.5334 -139.5658   12.2988 H   0  0  0  0  0  0  0  0  0  0  0  0
   15.2679 -140.7124   10.9418 H   0  0  0  0  0  0  0  0  0  0  0  0
   17.4887 -141.1540   10.7465 H   0  0  0  0  0  0  0  0  0  0  0  0
   19.0448 -139.5846   12.2255 H   0  0  0  0  0  0  0  0  0  0  0  0
   17.4788 -138.7483   12.4991 H   0  0  0  0  0  0  0  0  0  0  0  0
   17.3388 -138.0210   10.3107 H   0  0  0  0  0  0  0  0  0  0  0  0
   18.5455 -139.2170    9.7275 H   0  0  0  0  0  0  0  0  0  0  0  0
   18.9311 -136.6487   12.5805 H   0  0  0  0  0  0  0  0  0  0  0  0
   21.0231 -135.3855   12.8519 H   0  0  0  0  0  0  0  0  0  0  0  0
   22.7454 -135.2953   11.0597 H   0  0  0  0  0  0  0  0  0  0  0  0
   22.3573 -136.5497    8.9327 H   0  0  0  0  0  0  0  0  0  0  0  0
   20.2440 -137.8561    8.6013 H   0  0  0  0  0  0  0  0  0  0  0  0
   18.1376 -141.3650   13.6414 H   0  0  0  0  0  0  0  0  0  0  0  0
   13.8555 -138.0187   10.7023 H   0  0  0  0  0  0  0  0  0  0  0  0
   12.5664 -139.5134   11.5993 H   0  0  0  0  0  0  0  0  0  0  0  0
   11.6967 -138.1176   10.8766 H   0  0  0  0  0  0  0  0  0  0  0  0
   12.1434 -138.0156   13.8013 H   0  0  0  0  0  0  0  0  0  0  0  0
    9.7038 -137.5789   12.0352 H   0  0  0  0  0  0  0  0  0  0  0  0
   10.1415 -135.0833   12.3976 H   0  0  0  0  0  0  0  0  0  0  0  0
   11.2147 -135.9370   11.2373 H   0  0  0  0  0  0  0  0  0  0  0  0
   12.5032 -134.3375   12.6428 H   0  0  0  0  0  0  0  0  0  0  0  0
   13.0140 -136.0285   12.9688 H   0  0  0  0  0  0  0  0  0  0  0  0
   11.9408 -135.1748   14.1291 H   0  0  0  0  0  0  0  0  0  0  0  0
    9.1636 -137.9017   14.4646 H   0  0  0  0  0  0  0  0  0  0  0  0
    8.7268 -136.2710   13.8508 H   0  0  0  0  0  0  0  0  0  0  0  0
   10.2007 -136.4878   14.8545 H   0  0  0  0  0  0  0  0  0  0  0  0
   10.1426 -139.4787   14.2525 H   0  0  0  0  0  0  0  0  0  0  0  0
   10.6668 -140.4671   11.6137 H   0  0  0  0  0  0  0  0  0  0  0  0
  1  2  2  0  0  0  0
  1  3  1  0  0  0  0
  3  4  1  0  0  0  0
  4  5  1  0  0  0  0
  4 42  1  0  0  0  0
  4 43  1  0  0  0  0
  5  6  2  0  0  0  0
  5 10  1  0  0  0  0
  6  7  1  0  0  0  0
  6 44  1  0  0  0  0
  7  8  2  0  0  0  0
  7 45  1  0  0  0  0
  8 46  1  0  0  0  0
  9  8  1  0  0  0  0
  9 47  1  0  0  0  0
 10  9  2  0  0  0  0
 10 48  1  0  0  0  0
 11  1  1  0  0  0  0
 11 49  1  0  0  0  0
 12 11  1  0  0  0  0
 12 15  1  0  0  0  0
 12 50  1  6  0  0  0
 13 12  1  0  0  0  0
 13 14  2  0  0  0  0
 15 51  1  0  0  0  0
 15 52  1  0  0  0  0
 15 53  1  0  0  0  0
 16 17  1  0  0  0  0
 16 54  1  0  0  0  0
 17 18  1  0  0  0  0
 17 19  1  0  0  0  0
 17 55  1  1  0  0  0
 18 56  1  0  0  0  0
 18 57  1  0  0  0  0
 19 18  1  0  0  0  0
 19 20  1  0  0  0  0
 19 58  1  1  0  0  0
 20 21  1  0  0  0  0
 20 59  1  0  0  0  0
 20 60  1  0  0  0  0
 21 22  1  0  0  0  0
 21 30  1  0  0  0  0
 21 61  1  6  0  0  0
 22 23  1  0  0  0  0
 22 62  1  0  0  0  0
 22 63  1  0  0  0  0
 23 24  1  0  0  0  0
 23 64  1  0  0  0  0
 23 65  1  0  0  0  0
 24 25  2  0  0  0  0
 24 29  1  0  0  0  0
 25 26  1  0  0  0  0
 25 66  1  0  0  0  0
 26 27  2  0  0  0  0
 26 67  1  0  0  0  0
 27 68  1  0  0  0  0
 28 27  1  0  0  0  0
 28 69  1  0  0  0  0
 29 28  2  0  0  0  0
 29 70  1  0  0  0  0
 30 13  1  0  0  0  0
 30 71  1  0  0  0  0
 31 72  1  0  0  0  0
 32 31  1  0  0  0  0
 32 73  1  0  0  0  0
 32 74  1  0  0  0  0
 33 32  1  0  0  0  0
 33 34  1  0  0  0  0
 33 75  1  1  0  0  0
 34 35  1  0  0  0  0
 34 37  1  0  0  0  0
 34 76  1  6  0  0  0
 35 36  1  0  0  0  0
 35 77  1  0  0  0  0
 35 78  1  0  0  0  0
 36 79  1  0  0  0  0
 36 80  1  0  0  0  0
 36 81  1  0  0  0  0
 37 82  1  0  0  0  0
 37 83  1  0  0  0  0
 37 84  1  0  0  0  0
 38 33  1  0  0  0  0
 38 39  1  0  0  0  0
 38 40  1  0  0  0  0
 38 85  1  1  0  0  0
 39 86  1  0  0  0  0
 40 16  1  0  0  0  0
 40 41  2  0  0  0  0
M  END
