4j78_ligand
 OpenBabel08222323353D

 99 98  0  0  1  0  0  0  0  0999 V2000
    5.8550   -0.9140   19.9160 N   0  3  0  0  0  0  0  0  0  0  0  0
    4.4970   -0.3770   19.8750 C   0  0  2  0  0  0  0  0  0  0  0  0
    4.5210    1.1380   19.6870 C   0  0  0  0  0  0  0  0  0  0  0  0
    4.8940    1.8720   20.6010 O   0  0  0  0  0  0  0  0  0  0  0  0
    3.7440   -0.7520   21.1620 C   0  0  0  0  0  0  0  0  0  0  0  0
    2.3420   -0.1390   21.3050 C   0  0  0  0  0  0  0  0  0  0  0  0
    1.3850   -0.5730   20.1860 C   0  0  0  0  0  0  0  0  0  0  0  0
    0.8180   -1.9800   20.3910 C   0  0  0  0  0  0  0  0  0  0  0  0
   -0.0120   -2.3830   19.2020 N   0  3  0  0  0  0  0  0  0  0  0  0
    4.1320    1.6110   18.5050 N   0  0  0  0  0  0  0  0  0  0  0  0
    4.0460    3.0530   18.2870 C   0  0  2  0  0  0  0  0  0  0  0  0
    2.8110    3.6000   19.0190 C   0  0  0  0  0  0  0  0  0  0  0  0
    1.8840    2.8520   19.3320 O   0  0  0  0  0  0  0  0  0  0  0  0
    4.0180    3.4270   16.7870 C   0  0  2  0  0  0  0  0  0  0  0  0
    4.1450    4.8480   16.6360 O   0  0  0  0  0  0  0  0  0  0  0  0
    2.7380    3.0020   16.1620 C   0  0  0  0  0  0  0  0  0  0  0  0
    2.8090    4.8980   19.2930 N   0  0  0  0  0  0  0  0  0  0  0  0
    1.6830    5.5290   19.9740 C   0  0  2  0  0  0  0  0  0  0  0  0
    1.3760    4.8220   21.2930 C   0  0  0  0  0  0  0  0  0  0  0  0
    0.2210    4.5240   21.6010 O   0  0  0  0  0  0  0  0  0  0  0  0
    0.4440    5.5490   19.0730 C   0  0  0  0  0  0  0  0  0  0  0  0
    0.6410    6.3000   17.7590 C   0  0  0  0  0  0  0  0  0  0  0  0
    0.8570    7.7790   17.9970 C   0  0  0  0  0  0  0  0  0  0  0  0
   -0.3760    8.5570   17.5820 C   0  0  0  0  0  0  0  0  0  0  0  0
   -0.3260    9.9590   18.0640 N   0  3  0  0  0  0  0  0  0  0  0  0
    2.4160    4.5520   22.0700 N   0  0  0  0  0  0  0  0  0  0  0  0
    2.2500    3.9010   23.3640 C   0  0  2  0  0  0  0  0  0  0  0  0
    1.6970    4.8690   24.4090 C   0  0  0  0  0  0  0  0  0  0  0  0
    0.9640    4.4570   25.3090 O   0  0  0  0  0  0  0  0  0  0  0  0
    3.5880    3.3240   23.8400 C   0  0  0  0  0  0  0  0  0  0  0  0
    3.5710    2.5580   25.1670 C   0  0  0  0  0  0  0  0  0  0  0  0
    2.6990    1.3050   25.0820 C   0  0  0  0  0  0  0  0  0  0  0  0
    4.9940    2.2030   25.6050 C   0  0  0  0  0  0  0  0  0  0  0  0
    2.0470    6.1500   24.2910 N   0  0  0  0  0  0  0  0  0  0  0  0
    1.5840    7.1690   25.2430 C   0  0  2  0  0  0  0  0  0  0  0  0
    0.0690    7.2670   25.2710 C   0  0  0  0  0  0  0  0  0  0  0  0
   -0.5850    6.9620   24.2660 O   0  5  0  0  0  0  0  0  0  0  0  0
    2.1240    8.5510   24.8660 C   0  0  0  0  0  0  0  0  0  0  0  0
    3.5950    8.8560   25.1560 C   0  0  0  0  0  0  0  0  0  0  0  0
    3.9380   10.2340   24.6130 C   0  0  0  0  0  0  0  0  0  0  0  0
    3.8730    8.7920   26.6390 C   0  0  0  0  0  0  0  0  0  0  0  0
   -0.5050    7.7100   26.2780 O   0  0  0  0  0  0  0  0  0  0  0  0
    5.8174   -1.9136   20.0404 H   0  0  0  0  0  0  0  0  0  0  0  0
    6.3576   -0.4984   20.6846 H   0  0  0  0  0  0  0  0  0  0  0  0
    6.3270   -0.7006   19.0513 H   0  0  0  0  0  0  0  0  0  0  0  0
    3.9703   -0.8244   19.0192 H   0  0  0  0  0  0  0  0  0  0  0  0
    4.3489   -0.4201   22.0187 H   0  0  0  0  0  0  0  0  0  0  0  0
    3.6405   -1.8468   21.1884 H   0  0  0  0  0  0  0  0  0  0  0  0
    2.4339    0.9569   21.2832 H   0  0  0  0  0  0  0  0  0  0  0  0
    1.9184   -0.4523   22.2706 H   0  0  0  0  0  0  0  0  0  0  0  0
    1.9306   -0.5515   19.2311 H   0  0  0  0  0  0  0  0  0  0  0  0
    0.5476    0.1392   20.1460 H   0  0  0  0  0  0  0  0  0  0  0  0
    0.1893   -1.9907   21.2936 H   0  0  0  0  0  0  0  0  0  0  0  0
    1.6475   -2.6920   20.5134 H   0  0  0  0  0  0  0  0  0  0  0  0
   -0.3799   -3.3101   19.3478 H   0  0  0  0  0  0  0  0  0  0  0  0
    0.5621   -2.3758   18.3735 H   0  0  0  0  0  0  0  0  0  0  0  0
   -0.7741   -1.7332   19.0884 H   0  0  0  0  0  0  0  0  0  0  0  0
    3.8986    0.9790   17.7660 H   0  0  0  0  0  0  0  0  0  0  0  0
    4.9409    3.5166   18.7277 H   0  0  0  0  0  0  0  0  0  0  0  0
    4.8551    2.9275   16.2774 H   0  0  0  0  0  0  0  0  0  0  0  0
    4.1270    5.0701   15.7125 H   0  0  0  0  0  0  0  0  0  0  0  0
    2.7406    3.2778   15.0971 H   0  0  0  0  0  0  0  0  0  0  0  0
    1.8990    3.5019   16.6681 H   0  0  0  0  0  0  0  0  0  0  0  0
    2.6272    1.9118   16.2581 H   0  0  0  0  0  0  0  0  0  0  0  0
    3.5954    5.4557   19.0274 H   0  0  0  0  0  0  0  0  0  0  0  0
    1.9598    6.5694   20.1995 H   0  0  0  0  0  0  0  0  0  0  0  0
   -0.3772    6.0291   19.6254 H   0  0  0  0  0  0  0  0  0  0  0  0
    0.1702    4.5096   18.8391 H   0  0  0  0  0  0  0  0  0  0  0  0
   -0.2525    6.1649   17.1318 H   0  0  0  0  0  0  0  0  0  0  0  0
    1.5192    5.8889   17.2396 H   0  0  0  0  0  0  0  0  0  0  0  0
    1.7193    8.1209   17.4058 H   0  0  0  0  0  0  0  0  0  0  0  0
    1.0535    7.9510   19.0655 H   0  0  0  0  0  0  0  0  0  0  0  0
   -1.2659    8.0665   18.0032 H   0  0  0  0  0  0  0  0  0  0  0  0
   -0.4436    8.5594   16.4841 H   0  0  0  0  0  0  0  0  0  0  0  0
   -1.1590   10.4450   17.7708 H   0  0  0  0  0  0  0  0  0  0  0  0
    0.4842   10.4182   17.6784 H   0  0  0  0  0  0  0  0  0  0  0  0
   -0.2693    9.9665   19.0704 H   0  0  0  0  0  0  0  0  0  0  0  0
    3.3343    4.8003   21.7617 H   0  0  0  0  0  0  0  0  0  0  0  0
    1.5342    3.0742   23.2454 H   0  0  0  0  0  0  0  0  0  0  0  0
    4.2935    4.1612   23.9469 H   0  0  0  0  0  0  0  0  0  0  0  0
    3.9505    2.6360   23.0621 H   0  0  0  0  0  0  0  0  0  0  0  0
    3.1360    3.2187   25.9313 H   0  0  0  0  0  0  0  0  0  0  0  0
    2.7115    0.7832   26.0503 H   0  0  0  0  0  0  0  0  0  0  0  0
    3.0914    0.6375   24.3007 H   0  0  0  0  0  0  0  0  0  0  0  0
    1.6667    1.5928   24.8339 H   0  0  0  0  0  0  0  0  0  0  0  0
    5.6004    3.1192   25.6585 H   0  0  0  0  0  0  0  0  0  0  0  0
    5.4399    1.5102   24.8762 H   0  0  0  0  0  0  0  0  0  0  0  0
    4.9643    1.7246   26.5951 H   0  0  0  0  0  0  0  0  0  0  0  0
    2.6404    6.4247   23.5344 H   0  0  0  0  0  0  0  0  0  0  0  0
    1.9460    6.8982   26.2458 H   0  0  0  0  0  0  0  0  0  0  0  0
    1.5233    9.2953   25.4093 H   0  0  0  0  0  0  0  0  0  0  0  0
    1.9721    8.6765   23.7838 H   0  0  0  0  0  0  0  0  0  0  0  0
    4.2201    8.1066   24.6485 H   0  0  0  0  0  0  0  0  0  0  0  0
    4.9952   10.4568   24.8197 H   0  0  0  0  0  0  0  0  0  0  0  0
    3.3024   10.9885   25.0995 H   0  0  0  0  0  0  0  0  0  0  0  0
    3.7647   10.2537   23.5269 H   0  0  0  0  0  0  0  0  0  0  0  0
    3.6202    7.7902   27.0165 H   0  0  0  0  0  0  0  0  0  0  0  0
    3.2626    9.5447   27.1593 H   0  0  0  0  0  0  0  0  0  0  0  0
    4.9387    8.9943   26.8214 H   0  0  0  0  0  0  0  0  0  0  0  0
  1  2  1  0  0  0  0
  1 43  1  0  0  0  0
  1 44  1  0  0  0  0
  1 45  1  0  0  0  0
  2  3  1  0  0  0  0
  2  5  1  0  0  0  0
  2 46  1  6  0  0  0
  3  4  2  0  0  0  0
  3 10  1  0  0  0  0
  5  6  1  0  0  0  0
  5 47  1  0  0  0  0
  5 48  1  0  0  0  0
  6  7  1  0  0  0  0
  6 49  1  0  0  0  0
  6 50  1  0  0  0  0
  7  8  1  0  0  0  0
  7 51  1  0  0  0  0
  7 52  1  0  0  0  0
  8  9  1  0  0  0  0
  8 53  1  0  0  0  0
  8 54  1  0  0  0  0
  9 55  1  0  0  0  0
  9 56  1  0  0  0  0
  9 57  1  0  0  0  0
 10 11  1  0  0  0  0
 10 58  1  0  0  0  0
 11 12  1  0  0  0  0
 11 14  1  0  0  0  0
 11 59  1  1  0  0  0
 12 13  2  0  0  0  0
 12 17  1  0  0  0  0
 14 15  1  0  0  0  0
 14 16  1  0  0  0  0
 14 60  1  6  0  0  0
 15 61  1  0  0  0  0
 16 62  1  0  0  0  0
 16 63  1  0  0  0  0
 16 64  1  0  0  0  0
 17 18  1  0  0  0  0
 17 65  1  0  0  0  0
 18 19  1  0  0  0  0
 18 21  1  0  0  0  0
 18 66  1  1  0  0  0
 19 20  2  0  0  0  0
 19 26  1  0  0  0  0
 21 22  1  0  0  0  0
 21 67  1  0  0  0  0
 21 68  1  0  0  0  0
 22 23  1  0  0  0  0
 22 69  1  0  0  0  0
 22 70  1  0  0  0  0
 23 24  1  0  0  0  0
 23 71  1  0  0  0  0
 23 72  1  0  0  0  0
 24 25  1  0  0  0  0
 24 73  1  0  0  0  0
 24 74  1  0  0  0  0
 25 75  1  0  0  0  0
 25 76  1  0  0  0  0
 25 77  1  0  0  0  0
 26 27  1  0  0  0  0
 26 78  1  0  0  0  0
 27 28  1  0  0  0  0
 27 30  1  0  0  0  0
 27 79  1  6  0  0  0
 28 29  2  0  0  0  0
 28 34  1  0  0  0  0
 30 31  1  0  0  0  0
 30 80  1  0  0  0  0
 30 81  1  0  0  0  0
 31 32  1  0  0  0  0
 31 33  1  0  0  0  0
 31 82  1  0  0  0  0
 32 83  1  0  0  0  0
 32 84  1  0  0  0  0
 32 85  1  0  0  0  0
 33 86  1  0  0  0  0
 33 87  1  0  0  0  0
 33 88  1  0  0  0  0
 34 35  1  0  0  0  0
 34 89  1  0  0  0  0
 35 36  1  0  0  0  0
 35 38  1  0  0  0  0
 35 90  1  1  0  0  0
 36 37  1  0  0  0  0
 36 42  2  0  0  0  0
 38 39  1  0  0  0  0
 38 91  1  0  0  0  0
 38 92  1  0  0  0  0
 39 40  1  0  0  0  0
 39 41  1  0  0  0  0
 39 93  1  0  0  0  0
 40 94  1  0  0  0  0
 40 95  1  0  0  0  0
 40 96  1  0  0  0  0
 41 97  1  0  0  0  0
 41 98  1  0  0  0  0
 41 99  1  0  0  0  0
M  CHG  4   1   1   9   1  25   1  37  -1
M  END
