4j84_ligand
 OpenBabel08222323353D

 90 89  0  0  1  0  0  0  0  0999 V2000
   -7.2540 -126.3900  116.9300 N   0  3  0  0  0  0  0  0  0  0  0  0
   -6.3040 -125.5320  117.6340 C   0  0  2  0  0  0  0  0  0  0  0  0
   -4.9050 -126.1360  117.5990 C   0  0  0  0  0  0  0  0  0  0  0  0
   -4.5770 -126.9960  118.4160 O   0  0  0  0  0  0  0  0  0  0  0  0
   -6.7490 -125.3270  119.0660 C   0  0  0  0  0  0  0  0  0  0  0  0
   -4.0730 -125.6740  116.6720 N   0  0  0  0  0  0  0  0  0  0  0  0
   -2.8010 -126.3470  116.4170 C   0  0  2  0  0  0  0  0  0  0  0  0
   -1.6300 -125.9530  117.3140 C   0  0  0  0  0  0  0  0  0  0  0  0
   -1.4520 -124.7810  117.6670 O   0  0  0  0  0  0  0  0  0  0  0  0
   -2.4030 -126.2370  114.9430 C   0  0  0  0  0  0  0  0  0  0  0  0
   -2.8530 -127.4300  114.1050 C   0  0  0  0  0  0  0  0  0  0  0  0
   -2.0850 -127.5080  112.8030 C   0  0  0  0  0  0  0  0  0  0  0  0
   -0.8650 -128.3050  112.9210 N   0  0  0  0  0  0  0  0  0  0  0  0
   -0.0100 -128.4890  111.9220 C   0  0  0  0  0  3  0  0  0  0  0  0
   -0.2500 -127.9270  110.7500 N   0  0  0  0  0  0  0  0  0  0  0  0
    1.0770 -129.2310  112.0900 N   0  0  0  0  0  0  0  0  0  0  0  0
   -0.8420 -126.9650  117.6740 N   0  0  0  0  0  0  0  0  0  0  0  0
    0.4050 -126.7880  118.4130 C   0  0  2  0  0  0  0  0  0  0  0  0
    0.2120 -126.0880  119.7520 C   0  0  0  0  0  0  0  0  0  0  0  0
    0.9990 -125.2130  120.1050 O   0  0  0  0  0  0  0  0  0  0  0  0
    1.4120 -125.9960  117.5690 C   0  0  0  0  0  0  0  0  0  0  0  0
    1.9460 -126.7230  116.3430 C   0  0  0  0  0  0  0  0  0  0  0  0
    2.9230 -127.8070  116.7510 C   0  0  0  0  0  0  0  0  0  0  0  0
    3.4020 -128.6150  115.5500 C   0  0  0  0  0  0  0  0  0  0  0  0
    4.2410 -129.7440  116.0060 N   0  3  0  0  0  0  0  0  0  0  0  0
   -0.8150 -126.4700  120.5070 N   0  0  0  0  0  0  0  0  0  0  0  0
   -1.0510 -125.8340  121.8030 C   0  0  2  0  0  0  0  0  0  0  0  0
   -0.1190 -126.3740  122.8820 C   0  0  0  0  0  0  0  0  0  0  0  0
    0.2760 -125.6300  123.7860 O   0  0  0  0  0  0  0  0  0  0  0  0
   -2.5190 -125.9600  122.2360 C   0  0  0  0  0  0  0  0  0  0  0  0
   -3.5700 -125.2210  121.3930 C   0  0  0  0  0  0  0  0  0  0  0  0
   -4.9610 -125.3620  122.0070 C   0  0  0  0  0  0  0  0  0  0  0  0
   -3.2160 -123.7540  121.2260 C   0  0  0  0  0  0  0  0  0  0  0  0
    0.2400 -127.6550  122.7810 N   0  0  0  0  0  0  0  0  0  0  0  0
    1.1340 -128.2890  123.7580 C   0  0  2  0  0  0  0  0  0  0  0  0
    2.5700 -127.7600  123.6830 C   0  0  0  0  0  0  0  0  0  0  0  0
    3.3490 -127.9780  124.6130 O   0  5  0  0  0  0  0  0  0  0  0  0
    1.1640 -129.8080  123.5730 C   0  0  0  0  0  0  0  0  0  0  0  0
   -0.1100 -130.4780  124.0220 C   0  0  0  0  0  0  0  0  0  0  0  0
   -1.0930 -129.7680  124.3210 O   0  5  0  0  0  0  0  0  0  0  0  0
   -0.1260 -131.7250  124.0710 O   0  0  0  0  0  0  0  0  0  0  0  0
    2.9860 -127.1340  122.7030 O   0  0  0  0  0  0  0  0  0  0  0  0
   -8.1716 -125.9742  116.9642 H   0  0  0  0  0  0  0  0  0  0  0  0
   -7.2791 -127.2961  117.3709 H   0  0  0  0  0  0  0  0  0  0  0  0
   -6.9669 -126.4917  115.9691 H   0  0  0  0  0  0  0  0  0  0  0  0
   -6.2757 -124.5542  117.1309 H   0  0  0  0  0  0  0  0  0  0  0  0
   -6.0267 -124.6801  119.5854 H   0  0  0  0  0  0  0  0  0  0  0  0
   -6.8027 -126.3000  119.5762 H   0  0  0  0  0  0  0  0  0  0  0  0
   -7.7410 -124.8518  119.0773 H   0  0  0  0  0  0  0  0  0  0  0  0
   -4.3187 -124.8603  116.1452 H   0  0  0  0  0  0  0  0  0  0  0  0
   -2.9852 -127.4127  116.6177 H   0  0  0  0  0  0  0  0  0  0  0  0
   -1.3073 -126.1612  114.8820 H   0  0  0  0  0  0  0  0  0  0  0  0
   -2.8574 -125.3263  114.5258 H   0  0  0  0  0  0  0  0  0  0  0  0
   -3.9255 -127.3278  113.8829 H   0  0  0  0  0  0  0  0  0  0  0  0
   -2.6834 -128.3541  114.6770 H   0  0  0  0  0  0  0  0  0  0  0  0
   -1.8120 -126.4887  112.4925 H   0  0  0  0  0  0  0  0  0  0  0  0
   -2.7316 -127.9634  112.0385 H   0  0  0  0  0  0  0  0  0  0  0  0
   -0.6577 -128.7475  113.8277 H   0  0  0  0  0  0  0  0  0  0  0  0
    0.4073 -128.0639  109.9689 H   0  0  0  0  0  0  0  0  0  0  0  0
   -1.0944 -127.3522  110.6178 H   0  0  0  0  0  0  0  0  0  0  0  0
    1.2652 -129.6695  113.0028 H   0  0  0  0  0  0  0  0  0  0  0  0
    1.7327 -129.3685  111.3076 H   0  0  0  0  0  0  0  0  0  0  0  0
   -1.1186 -127.8933  117.4255 H   0  0  0  0  0  0  0  0  0  0  0  0
    0.8229 -127.7863  118.6098 H   0  0  0  0  0  0  0  0  0  0  0  0
    2.2672 -125.7399  118.2117 H   0  0  0  0  0  0  0  0  0  0  0  0
    0.9193 -125.0731  117.2292 H   0  0  0  0  0  0  0  0  0  0  0  0
    2.4582 -126.0018  115.6893 H   0  0  0  0  0  0  0  0  0  0  0  0
    1.1061 -127.1793  115.7986 H   0  0  0  0  0  0  0  0  0  0  0  0
    2.4274 -128.4846  117.4618 H   0  0  0  0  0  0  0  0  0  0  0  0
    3.7926 -127.3392  117.2357 H   0  0  0  0  0  0  0  0  0  0  0  0
    3.9925 -127.9666  114.8861 H   0  0  0  0  0  0  0  0  0  0  0  0
    2.5316 -129.0053  115.0022 H   0  0  0  0  0  0  0  0  0  0  0  0
    4.5542 -130.2737  115.2077 H   0  0  0  0  0  0  0  0  0  0  0  0
    3.7010 -130.3399  116.6138 H   0  0  0  0  0  0  0  0  0  0  0  0
    5.0398 -129.3880  116.5073 H   0  0  0  0  0  0  0  0  0  0  0  0
   -1.4269 -127.1936  120.1877 H   0  0  0  0  0  0  0  0  0  0  0  0
   -0.8321 -124.7625  121.6853 H   0  0  0  0  0  0  0  0  0  0  0  0
   -2.5936 -125.5785  123.2650 H   0  0  0  0  0  0  0  0  0  0  0  0
   -2.7768 -127.0293  122.2217 H   0  0  0  0  0  0  0  0  0  0  0  0
   -3.5881 -125.6827  120.3948 H   0  0  0  0  0  0  0  0  0  0  0  0
   -5.6924 -124.8250  121.3852 H   0  0  0  0  0  0  0  0  0  0  0  0
   -4.9591 -124.9360  123.0212 H   0  0  0  0  0  0  0  0  0  0  0  0
   -5.2336 -126.4265  122.0569 H   0  0  0  0  0  0  0  0  0  0  0  0
   -2.2128 -123.6670  120.7833 H   0  0  0  0  0  0  0  0  0  0  0  0
   -3.2272 -123.2599  122.2087 H   0  0  0  0  0  0  0  0  0  0  0  0
   -3.9515 -123.2722  120.5650 H   0  0  0  0  0  0  0  0  0  0  0  0
   -0.1098 -128.1988  122.0182 H   0  0  0  0  0  0  0  0  0  0  0  0
    0.7405 -128.0682  124.7612 H   0  0  0  0  0  0  0  0  0  0  0  0
    2.0008 -130.2166  124.1584 H   0  0  0  0  0  0  0  0  0  0  0  0
    1.3200 -130.0289  122.5068 H   0  0  0  0  0  0  0  0  0  0  0  0
  1  2  1  0  0  0  0
  1 43  1  0  0  0  0
  1 44  1  0  0  0  0
  1 45  1  0  0  0  0
  2  3  1  0  0  0  0
  2  5  1  0  0  0  0
  2 46  1  6  0  0  0
  3  4  2  0  0  0  0
  3  6  1  0  0  0  0
  5 47  1  0  0  0  0
  5 48  1  0  0  0  0
  5 49  1  0  0  0  0
  6  7  1  0  0  0  0
  6 50  1  0  0  0  0
  7  8  1  0  0  0  0
  7 10  1  0  0  0  0
  7 51  1  1  0  0  0
  8  9  2  0  0  0  0
  8 17  1  0  0  0  0
 10 11  1  0  0  0  0
 10 52  1  0  0  0  0
 10 53  1  0  0  0  0
 11 12  1  0  0  0  0
 11 54  1  0  0  0  0
 11 55  1  0  0  0  0
 12 13  1  0  0  0  0
 12 56  1  0  0  0  0
 12 57  1  0  0  0  0
 13 14  1  0  0  0  0
 13 58  1  0  0  0  0
 14 15  1  0  0  0  0
 14 16  1  0  0  0  0
 15 59  1  0  0  0  0
 15 60  1  0  0  0  0
 16 61  1  0  0  0  0
 16 62  1  0  0  0  0
 17 18  1  0  0  0  0
 17 63  1  0  0  0  0
 18 19  1  0  0  0  0
 18 21  1  0  0  0  0
 18 64  1  1  0  0  0
 19 20  2  0  0  0  0
 19 26  1  0  0  0  0
 21 22  1  0  0  0  0
 21 65  1  0  0  0  0
 21 66  1  0  0  0  0
 22 23  1  0  0  0  0
 22 67  1  0  0  0  0
 22 68  1  0  0  0  0
 23 24  1  0  0  0  0
 23 69  1  0  0  0  0
 23 70  1  0  0  0  0
 24 25  1  0  0  0  0
 24 71  1  0  0  0  0
 24 72  1  0  0  0  0
 25 73  1  0  0  0  0
 25 74  1  0  0  0  0
 25 75  1  0  0  0  0
 26 27  1  0  0  0  0
 26 76  1  0  0  0  0
 27 28  1  0  0  0  0
 27 30  1  0  0  0  0
 27 77  1  6  0  0  0
 28 29  2  0  0  0  0
 28 34  1  0  0  0  0
 30 31  1  0  0  0  0
 30 78  1  0  0  0  0
 30 79  1  0  0  0  0
 31 32  1  0  0  0  0
 31 33  1  0  0  0  0
 31 80  1  0  0  0  0
 32 81  1  0  0  0  0
 32 82  1  0  0  0  0
 32 83  1  0  0  0  0
 33 84  1  0  0  0  0
 33 85  1  0  0  0  0
 33 86  1  0  0  0  0
 34 35  1  0  0  0  0
 34 87  1  0  0  0  0
 35 36  1  0  0  0  0
 35 38  1  0  0  0  0
 35 88  1  1  0  0  0
 36 37  1  0  0  0  0
 36 42  2  0  0  0  0
 38 39  1  0  0  0  0
 38 89  1  0  0  0  0
 38 90  1  0  0  0  0
 39 40  1  0  0  0  0
 39 41  2  0  0  0  0
M  CHG  4   1   1  25   1  37  -1  40  -1
M  END
