4j86_ligand
 OpenBabel08222323353D

109109  0  0  1  0  0  0  0  0999 V2000
  -27.1220  -13.8860  -19.5650 N   0  3  0  0  0  0  0  0  0  0  0  0
  -27.4830  -12.4960  -19.1990 C   0  0  2  0  0  0  0  0  0  0  0  0
  -26.6560  -11.5210  -20.0160 C   0  0  0  0  0  0  0  0  0  0  0  0
  -25.6230  -11.8860  -20.5740 O   0  0  0  0  0  0  0  0  0  0  0  0
  -27.1630  -12.2210  -17.7350 C   0  0  2  0  0  0  0  0  0  0  0  0
  -25.7660  -12.4540  -17.5260 O   0  0  0  0  0  0  0  0  0  0  0  0
  -27.9810  -13.1340  -16.8120 C   0  0  0  0  0  0  0  0  0  0  0  0
  -27.0950  -10.2710  -20.0650 N   0  0  0  0  0  0  0  0  0  0  0  0
  -26.3250   -9.2500  -20.7280 C   0  0  2  0  0  0  0  0  0  0  0  0
  -24.9690   -9.0910  -20.0370 C   0  0  0  0  0  0  0  0  0  0  0  0
  -23.9650   -8.8330  -20.7110 O   0  0  0  0  0  0  0  0  0  0  0  0
  -27.0720   -7.9260  -20.7160 C   0  0  0  0  0  0  0  0  0  0  0  0
  -28.2920   -7.8990  -21.5960 C   0  0  0  0  0  0  0  0  0  0  0  0
  -28.2320   -8.3340  -22.9080 C   0  0  0  0  0  0  0  0  0  0  0  0
  -29.4950   -7.4200  -21.1050 C   0  0  0  0  0  0  0  0  0  0  0  0
  -29.3650   -8.2930  -23.7230 C   0  0  0  0  0  0  0  0  0  0  0  0
  -30.6230   -7.3730  -21.9040 C   0  0  0  0  0  0  0  0  0  0  0  0
  -30.5560   -7.8080  -23.2170 C   0  0  0  0  0  0  0  0  0  0  0  0
  -24.9240   -9.2290  -18.7090 N   0  0  0  0  0  0  0  0  0  0  0  0
  -23.6190   -9.1170  -18.0340 C   0  0  2  0  0  0  0  0  0  0  0  0
  -22.6510  -10.1750  -18.5330 C   0  0  0  0  0  0  0  0  0  0  0  0
  -21.4900   -9.8830  -18.8170 O   0  0  0  0  0  0  0  0  0  0  0  0
  -23.7420   -9.1850  -16.5030 C   0  0  0  0  0  0  0  0  0  0  0  0
  -22.3920   -9.0420  -15.7890 C   0  0  0  0  0  0  0  0  0  0  0  0
  -21.7160   -7.7180  -16.1240 C   0  0  0  0  0  0  0  0  0  0  0  0
  -20.4050   -7.5610  -15.3590 C   0  0  0  0  0  0  0  0  0  0  0  0
  -19.8140   -6.2170  -15.6180 N   0  3  0  0  0  0  0  0  0  0  0  0
  -23.1290  -11.4020  -18.6690 N   0  0  0  0  0  0  0  0  0  0  0  0
  -22.3210  -12.4890  -19.1860 C   0  0  2  0  0  0  0  0  0  0  0  0
  -21.8320  -12.1880  -20.6040 C   0  0  0  0  0  0  0  0  0  0  0  0
  -20.6570  -12.3420  -20.9040 O   0  0  0  0  0  0  0  0  0  0  0  0
  -23.1820  -13.7620  -19.1870 C   0  0  0  0  0  0  0  0  0  0  0  0
  -22.6310  -14.9690  -19.9220 C   0  0  0  0  0  0  0  0  0  0  0  0
  -21.5780  -15.6180  -19.0880 C   0  0  0  0  0  0  0  0  0  0  0  0
  -21.1480  -16.9990  -19.5820 C   0  0  0  0  0  0  0  0  0  0  0  0
  -20.0980  -17.5380  -18.6500 N   0  3  0  0  0  0  0  0  0  0  0  0
  -22.7260  -11.7440  -21.4820 N   0  0  0  0  0  0  0  0  0  0  0  0
  -22.3970  -11.7290  -22.9060 C   0  0  2  0  0  0  0  0  0  0  0  0
  -21.9230  -10.4110  -23.5220 C   0  0  0  0  0  0  0  0  0  0  0  0
  -21.2560  -10.4600  -24.5520 O   0  0  0  0  0  0  0  0  0  0  0  0
  -23.5680  -12.2740  -23.7500 C   0  0  2  0  0  0  0  0  0  0  0  0
  -24.6990  -11.4110  -23.6180 O   0  0  0  0  0  0  0  0  0  0  0  0
  -23.9210  -13.6740  -23.3110 C   0  0  0  0  0  0  0  0  0  0  0  0
  -22.2560   -9.2680  -22.9130 N   0  0  0  0  0  0  0  0  0  0  0  0
  -21.8990   -7.9730  -23.4740 C   0  0  2  0  0  0  0  0  0  0  0  0
  -20.4150   -7.8880  -23.7820 C   0  0  0  0  0  0  0  0  0  0  0  0
  -19.6030   -8.4280  -23.0090 O   0  5  0  0  0  0  0  0  0  0  0  0
  -22.2170   -6.8520  -22.4780 C   0  0  0  0  0  0  0  0  0  0  0  0
  -23.6730   -6.4010  -22.5160 C   0  0  0  0  0  0  0  0  0  0  0  0
  -24.4330   -6.7820  -23.4010 O   0  0  0  0  0  0  0  0  0  0  0  0
  -24.0570   -5.5810  -21.5390 N   0  0  0  0  0  0  0  0  0  0  0  0
  -20.0210   -7.2420  -24.7590 O   0  0  0  0  0  0  0  0  0  0  0  0
  -27.3417  -14.0457  -20.5357 H   0  0  0  0  0  0  0  0  0  0  0  0
  -27.6437  -14.5306  -18.9920 H   0  0  0  0  0  0  0  0  0  0  0  0
  -26.1351  -14.0271  -19.4163 H   0  0  0  0  0  0  0  0  0  0  0  0
  -28.5550  -12.3355  -19.3863 H   0  0  0  0  0  0  0  0  0  0  0  0
  -27.3997  -11.1722  -17.5029 H   0  0  0  0  0  0  0  0  0  0  0  0
  -25.2622  -11.8730  -18.0839 H   0  0  0  0  0  0  0  0  0  0  0  0
  -27.7307  -12.9145  -15.7636 H   0  0  0  0  0  0  0  0  0  0  0  0
  -27.7448  -14.1854  -17.0330 H   0  0  0  0  0  0  0  0  0  0  0  0
  -29.0539  -12.9566  -16.9777 H   0  0  0  0  0  0  0  0  0  0  0  0
  -27.9680  -10.0350  -19.6381 H   0  0  0  0  0  0  0  0  0  0  0  0
  -26.1594   -9.5533  -21.7723 H   0  0  0  0  0  0  0  0  0  0  0  0
  -26.3837   -7.1383  -21.0562 H   0  0  0  0  0  0  0  0  0  0  0  0
  -27.3869   -7.7168  -19.6830 H   0  0  0  0  0  0  0  0  0  0  0  0
  -27.2968   -8.7101  -23.3069 H   0  0  0  0  0  0  0  0  0  0  0  0
  -29.5535   -7.0766  -20.0785 H   0  0  0  0  0  0  0  0  0  0  0  0
  -29.3106   -8.6402  -24.7485 H   0  0  0  0  0  0  0  0  0  0  0  0
  -31.5573   -6.9966  -21.5034 H   0  0  0  0  0  0  0  0  0  0  0  0
  -31.4370   -7.7681  -23.8473 H   0  0  0  0  0  0  0  0  0  0  0  0
  -25.7573   -9.4044  -18.1847 H   0  0  0  0  0  0  0  0  0  0  0  0
  -23.2009   -8.1321  -18.2892 H   0  0  0  0  0  0  0  0  0  0  0  0
  -24.1830  -10.1548  -16.2290 H   0  0  0  0  0  0  0  0  0  0  0  0
  -24.4041   -8.3732  -16.1676 H   0  0  0  0  0  0  0  0  0  0  0  0
  -21.7345   -9.8670  -16.1006 H   0  0  0  0  0  0  0  0  0  0  0  0
  -22.5558   -9.0939  -14.7025 H   0  0  0  0  0  0  0  0  0  0  0  0
  -22.3904   -6.8920  -15.8541 H   0  0  0  0  0  0  0  0  0  0  0  0
  -21.5081   -7.6839  -17.2036 H   0  0  0  0  0  0  0  0  0  0  0  0
  -19.6982   -8.3376  -15.6865 H   0  0  0  0  0  0  0  0  0  0  0  0
  -20.5978   -7.6714  -14.2817 H   0  0  0  0  0  0  0  0  0  0  0  0
  -18.9495   -6.1261  -15.1076 H   0  0  0  0  0  0  0  0  0  0  0  0
  -20.4585   -5.5028  -15.3171 H   0  0  0  0  0  0  0  0  0  0  0  0
  -19.6342   -6.1134  -16.6044 H   0  0  0  0  0  0  0  0  0  0  0  0
  -24.0766  -11.5847  -18.4070 H   0  0  0  0  0  0  0  0  0  0  0  0
  -21.4487  -12.6359  -18.5322 H   0  0  0  0  0  0  0  0  0  0  0  0
  -24.1488  -13.5077  -19.6459 H   0  0  0  0  0  0  0  0  0  0  0  0
  -23.3397  -14.0561  -18.1388 H   0  0  0  0  0  0  0  0  0  0  0  0
  -22.1949  -14.6482  -20.8795 H   0  0  0  0  0  0  0  0  0  0  0  0
  -23.4434  -15.6862  -20.1110 H   0  0  0  0  0  0  0  0  0  0  0  0
  -21.9658  -15.7236  -18.0641 H   0  0  0  0  0  0  0  0  0  0  0  0
  -20.6934  -14.9642  -19.0795 H   0  0  0  0  0  0  0  0  0  0  0  0
  -20.7343  -16.9167  -20.5979 H   0  0  0  0  0  0  0  0  0  0  0  0
  -22.0156  -17.6751  -19.5930 H   0  0  0  0  0  0  0  0  0  0  0  0
  -19.8053  -18.4497  -18.9649 H   0  0  0  0  0  0  0  0  0  0  0  0
  -20.4795  -17.6103  -17.7198 H   0  0  0  0  0  0  0  0  0  0  0  0
  -19.3054  -16.9153  -18.6407 H   0  0  0  0  0  0  0  0  0  0  0  0
  -23.6196  -11.4217  -21.1696 H   0  0  0  0  0  0  0  0  0  0  0  0
  -21.5585  -12.4319  -23.0192 H   0  0  0  0  0  0  0  0  0  0  0  0
  -23.2630  -12.3012  -24.8065 H   0  0  0  0  0  0  0  0  0  0  0  0
  -24.4691  -10.5408  -23.9220 H   0  0  0  0  0  0  0  0  0  0  0  0
  -24.7562  -14.0497  -23.9203 H   0  0  0  0  0  0  0  0  0  0  0  0
  -24.2163  -13.6626  -22.2514 H   0  0  0  0  0  0  0  0  0  0  0  0
  -23.0479  -14.3303  -23.4413 H   0  0  0  0  0  0  0  0  0  0  0  0
  -22.7625   -9.3037  -22.0515 H   0  0  0  0  0  0  0  0  0  0  0  0
  -22.4733   -7.8186  -24.3993 H   0  0  0  0  0  0  0  0  0  0  0  0
  -21.5783   -5.9873  -22.7111 H   0  0  0  0  0  0  0  0  0  0  0  0
  -21.9904   -7.2125  -21.4638 H   0  0  0  0  0  0  0  0  0  0  0  0
  -24.9996   -5.2486  -21.5067 H   0  0  0  0  0  0  0  0  0  0  0  0
  -23.4027   -5.2978  -20.8378 H   0  0  0  0  0  0  0  0  0  0  0  0
  1  2  1  0  0  0  0
  1 53  1  0  0  0  0
  1 54  1  0  0  0  0
  1 55  1  0  0  0  0
  2  3  1  0  0  0  0
  2  5  1  0  0  0  0
  2 56  1  6  0  0  0
  3  4  2  0  0  0  0
  3  8  1  0  0  0  0
  5  6  1  0  0  0  0
  5  7  1  0  0  0  0
  5 57  1  1  0  0  0
  6 58  1  0  0  0  0
  7 59  1  0  0  0  0
  7 60  1  0  0  0  0
  7 61  1  0  0  0  0
  8  9  1  0  0  0  0
  8 62  1  0  0  0  0
  9 10  1  0  0  0  0
  9 12  1  0  0  0  0
  9 63  1  6  0  0  0
 10 11  2  0  0  0  0
 10 19  1  0  0  0  0
 12 13  1  0  0  0  0
 12 64  1  0  0  0  0
 12 65  1  0  0  0  0
 13 14  2  0  0  0  0
 13 15  1  0  0  0  0
 14 16  1  0  0  0  0
 14 66  1  0  0  0  0
 15 17  2  0  0  0  0
 15 67  1  0  0  0  0
 16 18  2  0  0  0  0
 16 68  1  0  0  0  0
 17 18  1  0  0  0  0
 17 69  1  0  0  0  0
 18 70  1  0  0  0  0
 19 20  1  0  0  0  0
 19 71  1  0  0  0  0
 20 21  1  0  0  0  0
 20 23  1  0  0  0  0
 20 72  1  6  0  0  0
 21 22  2  0  0  0  0
 21 28  1  0  0  0  0
 23 24  1  0  0  0  0
 23 73  1  0  0  0  0
 23 74  1  0  0  0  0
 24 25  1  0  0  0  0
 24 75  1  0  0  0  0
 24 76  1  0  0  0  0
 25 26  1  0  0  0  0
 25 77  1  0  0  0  0
 25 78  1  0  0  0  0
 26 27  1  0  0  0  0
 26 79  1  0  0  0  0
 26 80  1  0  0  0  0
 27 81  1  0  0  0  0
 27 82  1  0  0  0  0
 27 83  1  0  0  0  0
 28 29  1  0  0  0  0
 28 84  1  0  0  0  0
 29 30  1  0  0  0  0
 29 32  1  0  0  0  0
 29 85  1  1  0  0  0
 30 31  2  0  0  0  0
 30 37  1  0  0  0  0
 32 33  1  0  0  0  0
 32 86  1  0  0  0  0
 32 87  1  0  0  0  0
 33 34  1  0  0  0  0
 33 88  1  0  0  0  0
 33 89  1  0  0  0  0
 34 35  1  0  0  0  0
 34 90  1  0  0  0  0
 34 91  1  0  0  0  0
 35 36  1  0  0  0  0
 35 92  1  0  0  0  0
 35 93  1  0  0  0  0
 36 94  1  0  0  0  0
 36 95  1  0  0  0  0
 36 96  1  0  0  0  0
 37 38  1  0  0  0  0
 37 97  1  0  0  0  0
 38 39  1  0  0  0  0
 38 41  1  0  0  0  0
 38 98  1  6  0  0  0
 39 40  2  0  0  0  0
 39 44  1  0  0  0  0
 41 42  1  0  0  0  0
 41 43  1  0  0  0  0
 41 99  1  6  0  0  0
 42100  1  0  0  0  0
 43101  1  0  0  0  0
 43102  1  0  0  0  0
 43103  1  0  0  0  0
 44 45  1  0  0  0  0
 44104  1  0  0  0  0
 45 46  1  0  0  0  0
 45 48  1  0  0  0  0
 45105  1  6  0  0  0
 46 47  1  0  0  0  0
 46 52  2  0  0  0  0
 48 49  1  0  0  0  0
 48106  1  0  0  0  0
 48107  1  0  0  0  0
 49 50  2  0  0  0  0
 49 51  1  0  0  0  0
 51108  1  0  0  0  0
 51109  1  0  0  0  0
M  CHG  4   1   1  27   1  36   1  47  -1
M  END
