4j8g_ligand
 OpenBabel08222323353D

170171  0  0  1  0  0  0  0  0999 V2000
  -19.9520   21.5590  -91.5790 N   0  3  0  0  0  0  0  0  0  0  0  0
  -20.3120   21.4870  -92.9850 C   0  0  2  0  0  0  0  0  0  0  0  0
  -19.8200   20.1970  -93.6850 C   0  0  0  0  0  0  0  0  0  0  0  0
  -20.5280   19.6550  -94.5310 O   0  0  0  0  0  0  0  0  0  0  0  0
  -19.8170   22.7200  -93.6960 C   0  0  0  0  0  0  0  0  0  0  0  0
  -18.6120   19.7250  -93.3560 N   0  0  0  0  0  0  0  0  0  0  0  0
  -18.1730   18.3580  -93.7150 C   0  0  2  0  0  0  0  0  0  0  0  0
  -18.2890   17.4080  -92.4960 C   0  0  0  0  0  0  0  0  0  0  0  0
  -18.4500   17.8730  -91.3720 O   0  0  0  0  0  0  0  0  0  0  0  0
  -16.7640   18.3550  -94.2740 C   0  0  0  0  0  0  0  0  0  0  0  0
  -18.2210   16.0950  -92.7200 N   0  0  0  0  0  0  0  0  0  0  0  0
  -18.6550   15.0980  -91.7160 C   0  0  2  0  0  0  0  0  0  0  0  0
  -17.9030   15.1830  -90.3810 C   0  0  0  0  0  0  0  0  0  0  0  0
  -18.5000   15.1790  -89.2990 O   0  0  0  0  0  0  0  0  0  0  0  0
  -18.5400   13.6700  -92.2930 C   0  0  0  0  0  0  0  0  0  0  0  0
  -18.9410   12.6870  -91.3390 O   0  0  0  0  0  0  0  0  0  0  0  0
  -16.5850   15.2720  -90.4730 N   0  0  0  0  0  0  0  0  0  0  0  0
  -15.7430   15.3590  -89.2840 C   0  0  2  0  0  0  0  0  0  0  0  0
  -15.9150   16.6710  -88.4990 C   0  0  0  0  0  0  0  0  0  0  0  0
  -15.9980   16.6580  -87.2570 O   0  0  0  0  0  0  0  0  0  0  0  0
  -14.2850   15.1620  -89.6850 C   0  0  0  0  0  0  0  0  0  0  0  0
  -13.3350   15.3410  -88.5520 C   0  0  0  0  0  0  0  0  0  0  0  0
  -12.7040   16.5570  -88.3530 C   0  0  0  0  0  0  0  0  0  0  0  0
  -13.1050   14.3030  -87.6600 C   0  0  0  0  0  0  0  0  0  0  0  0
  -11.8250   16.7370  -87.2970 C   0  0  0  0  0  0  0  0  0  0  0  0
  -12.2230   14.4690  -86.5930 C   0  0  0  0  0  0  0  0  0  0  0  0
  -11.5830   15.6970  -86.4100 C   0  0  0  0  0  0  0  0  0  0  0  0
  -15.9580   17.8000  -89.2100 N   0  0  0  0  0  0  0  0  0  0  0  0
  -16.1780   19.1020  -88.5620 C   0  0  2  0  0  0  0  0  0  0  0  0
  -17.4890   19.0850  -87.8040 C   0  0  0  0  0  0  0  0  0  0  0  0
  -17.5550   19.4650  -86.6390 O   0  0  0  0  0  0  0  0  0  0  0  0
  -16.2020   20.2920  -89.5730 C   0  0  2  0  0  0  0  0  0  0  0  0
  -14.7850   20.7170  -89.9330 C   0  0  0  0  0  0  0  0  0  0  0  0
  -16.9280   21.4980  -88.9900 C   0  0  0  0  0  0  0  0  0  0  0  0
  -14.0160   19.6870  -90.7010 C   0  0  0  0  0  0  0  0  0  0  0  0
  -18.5340   18.6190  -88.4630 N   0  0  0  0  0  0  0  0  0  0  0  0
  -19.8480   18.5920  -87.8230 C   0  0  2  0  0  0  0  0  0  0  0  0
  -19.9670   17.6000  -86.6520 C   0  0  0  0  0  0  0  0  0  0  0  0
  -20.6280   17.8990  -85.6590 O   0  0  0  0  0  0  0  0  0  0  0  0
  -20.9280   18.2930  -88.8540 C   0  0  0  0  0  0  0  0  0  0  0  0
  -21.0780   19.3970  -89.8860 C   0  0  0  0  0  0  0  0  0  0  0  0
  -20.7190   20.5630  -89.5970 O   0  5  0  0  0  0  0  0  0  0  0  0
  -21.5750   19.0930  -90.9920 O   0  0  0  0  0  0  0  0  0  0  0  0
  -19.3580   16.4200  -86.7730 N   0  0  0  0  0  0  0  0  0  0  0  0
  -19.5100   15.3830  -85.7370 C   0  0  2  0  0  0  0  0  0  0  0  0
  -18.5180   15.5160  -84.5990 C   0  0  0  0  0  0  0  0  0  0  0  0
  -18.8300   15.2030  -83.4360 O   0  0  0  0  0  0  0  0  0  0  0  0
  -19.3990   13.9920  -86.3530 C   0  0  0  0  0  0  0  0  0  0  0  0
  -17.3090   15.9500  -84.9260 N   0  0  0  0  0  0  0  0  0  0  0  0
  -16.2570   15.9870  -83.9320 C   0  0  2  0  0  0  0  0  0  0  0  0
  -15.8490   17.3850  -83.4940 C   0  0  0  0  0  0  0  0  0  0  0  0
  -15.6750   17.6260  -82.3000 O   0  0  0  0  0  0  0  0  0  0  0  0
  -15.0180   15.2130  -84.4130 C   0  0  0  0  0  0  0  0  0  0  0  0
  -15.1820   13.7020  -84.4530 C   0  0  0  0  0  0  0  0  0  0  0  0
  -15.5610   13.0980  -83.0940 C   0  0  0  0  0  0  0  0  0  0  0  0
  -14.6720   13.5410  -81.9420 C   0  0  0  0  0  0  0  0  0  0  0  0
  -15.0630   12.7640  -80.7140 N   0  3  0  0  0  0  0  0  0  0  0  0
  -15.6460   18.3040  -84.4380 N   0  0  0  0  0  0  0  0  0  0  0  0
  -15.0340   19.5730  -84.0430 C   0  0  2  0  0  0  0  0  0  0  0  0
  -16.0280   20.4740  -83.3150 C   0  0  0  0  0  0  0  0  0  0  0  0
  -15.7110   21.0310  -82.2480 O   0  0  0  0  0  0  0  0  0  0  0  0
  -14.3970   20.3190  -85.2210 C   0  0  0  0  0  0  0  0  0  0  0  0
  -13.4910   21.4700  -84.7610 C   0  0  0  0  0  0  0  0  0  0  0  0
  -13.1160   22.4210  -85.8950 C   0  0  0  0  0  0  0  0  0  0  0  0
  -12.1060   23.4880  -85.4520 C   0  0  0  0  0  0  0  0  0  0  0  0
  -10.8820   22.9020  -84.8220 N   0  3  0  0  0  0  0  0  0  0  0  0
  -17.2300   20.5770  -83.8790 N   0  0  0  0  0  0  0  0  0  0  0  0
  -18.2180   21.5690  -83.4580 C   0  0  2  0  0  0  0  0  0  0  0  0
  -19.0630   21.2830  -82.2000 C   0  0  0  0  0  0  0  0  0  0  0  0
  -19.2480   22.1900  -81.4070 O   0  0  0  0  0  0  0  0  0  0  0  0
  -19.1460   21.9560  -84.6300 C   0  0  0  0  0  0  0  0  0  0  0  0
  -18.3950   22.5470  -85.8410 C   0  0  0  0  0  0  0  0  0  0  0  0
  -17.1820   23.8350  -85.4340 S   0  0  0  0  0  0  0  0  0  0  0  0
  -18.2800   25.2650  -85.4640 C   0  0  0  0  0  0  0  0  0  0  0  0
  -19.5880   20.0500  -82.0240 N   0  0  0  0  0  0  0  0  0  0  0  0
  -20.5810   19.9080  -80.9450 C   0  0  2  0  0  0  0  0  0  0  0  0
  -20.0090   19.9690  -79.5130 C   0  0  0  0  0  0  0  0  0  0  0  0
  -18.7950   19.8520  -79.3160 O   0  5  0  0  0  0  0  0  0  0  0  0
  -21.2220   18.5440  -81.2210 C   0  0  0  0  0  0  0  0  0  0  0  0
  -20.2210   17.7780  -81.9610 C   0  0  0  0  0  0  0  0  0  0  0  0
  -19.4520   18.8040  -82.8000 C   0  0  0  0  0  0  0  0  0  0  0  0
  -20.7640   20.1480  -78.5260 O   0  0  0  0  0  0  0  0  0  0  0  0
  -20.3011   22.4193  -91.1864 H   0  0  0  0  0  0  0  0  0  0  0  0
  -18.9486   21.5307  -91.4872 H   0  0  0  0  0  0  0  0  0  0  0  0
  -20.3566   20.7771  -91.0881 H   0  0  0  0  0  0  0  0  0  0  0  0
  -21.4105   21.4846  -93.0423 H   0  0  0  0  0  0  0  0  0  0  0  0
  -20.0902   22.6642  -94.7601 H   0  0  0  0  0  0  0  0  0  0  0  0
  -18.7230   22.7836  -93.6012 H   0  0  0  0  0  0  0  0  0  0  0  0
  -20.2766   23.6123  -93.2458 H   0  0  0  0  0  0  0  0  0  0  0  0
  -17.9841   20.3164  -92.8500 H   0  0  0  0  0  0  0  0  0  0  0  0
  -18.8460   17.9840  -94.5006 H   0  0  0  0  0  0  0  0  0  0  0  0
  -16.4728   17.3253  -94.5288 H   0  0  0  0  0  0  0  0  0  0  0  0
  -16.0699   18.7566  -93.5211 H   0  0  0  0  0  0  0  0  0  0  0  0
  -16.7268   18.9808  -95.1779 H   0  0  0  0  0  0  0  0  0  0  0  0
  -17.8643   15.7729  -93.5970 H   0  0  0  0  0  0  0  0  0  0  0  0
  -19.7166   15.2934  -91.5041 H   0  0  0  0  0  0  0  0  0  0  0  0
  -17.4947   13.4836  -92.5805 H   0  0  0  0  0  0  0  0  0  0  0  0
  -19.1844   13.5902  -93.1809 H   0  0  0  0  0  0  0  0  0  0  0  0
  -18.8589   11.8222  -91.7235 H   0  0  0  0  0  0  0  0  0  0  0  0
  -16.1572   15.2798  -91.3769 H   0  0  0  0  0  0  0  0  0  0  0  0
  -16.0293   14.5357  -88.6130 H   0  0  0  0  0  0  0  0  0  0  0  0
  -14.0362   15.8929  -90.4685 H   0  0  0  0  0  0  0  0  0  0  0  0
  -14.1665   14.1433  -90.0828 H   0  0  0  0  0  0  0  0  0  0  0  0
  -12.9000   17.3789  -89.0320 H   0  0  0  0  0  0  0  0  0  0  0  0
  -13.6150   13.3559  -87.7939 H   0  0  0  0  0  0  0  0  0  0  0  0
  -11.3263   17.6902  -87.1635 H   0  0  0  0  0  0  0  0  0  0  0  0
  -12.0349   13.6493  -85.9090 H   0  0  0  0  0  0  0  0  0  0  0  0
  -10.9007   15.8372  -85.5794 H   0  0  0  0  0  0  0  0  0  0  0  0
  -15.8384   17.7598  -90.2020 H   0  0  0  0  0  0  0  0  0  0  0  0
  -15.3567   19.2710  -87.8500 H   0  0  0  0  0  0  0  0  0  0  0  0
  -16.7237   19.9661  -90.4849 H   0  0  0  0  0  0  0  0  0  0  0  0
  -14.2409   20.9310  -89.0012 H   0  0  0  0  0  0  0  0  0  0  0  0
  -14.8424   21.6310  -90.5423 H   0  0  0  0  0  0  0  0  0  0  0  0
  -17.9561   21.2129  -88.7223 H   0  0  0  0  0  0  0  0  0  0  0  0
  -16.9541   22.3061  -89.7358 H   0  0  0  0  0  0  0  0  0  0  0  0
  -16.3981   21.8457  -88.0910 H   0  0  0  0  0  0  0  0  0  0  0  0
  -13.0084   20.0699  -90.9204 H   0  0  0  0  0  0  0  0  0  0  0  0
  -14.5380   19.4673  -91.6440 H   0  0  0  0  0  0  0  0  0  0  0  0
  -13.9366   18.7673  -90.1029 H   0  0  0  0  0  0  0  0  0  0  0  0
  -18.4266   18.2847  -89.3993 H   0  0  0  0  0  0  0  0  0  0  0  0
  -20.0314   19.5981  -87.4179 H   0  0  0  0  0  0  0  0  0  0  0  0
  -21.8878   18.1677  -88.3314 H   0  0  0  0  0  0  0  0  0  0  0  0
  -20.6688   17.3589  -89.3738 H   0  0  0  0  0  0  0  0  0  0  0  0
  -18.7914   16.2365  -87.5763 H   0  0  0  0  0  0  0  0  0  0  0  0
  -20.5188   15.4894  -85.3115 H   0  0  0  0  0  0  0  0  0  0  0  0
  -19.5148   13.2322  -85.5660 H   0  0  0  0  0  0  0  0  0  0  0  0
  -18.4139   13.8794  -86.8293 H   0  0  0  0  0  0  0  0  0  0  0  0
  -20.1883   13.8612  -87.1078 H   0  0  0  0  0  0  0  0  0  0  0  0
  -17.1232   16.2524  -85.8609 H   0  0  0  0  0  0  0  0  0  0  0  0
  -16.6463   15.4729  -83.0409 H   0  0  0  0  0  0  0  0  0  0  0  0
  -14.1840   15.4482  -83.7354 H   0  0  0  0  0  0  0  0  0  0  0  0
  -14.7734   15.5570  -85.4288 H   0  0  0  0  0  0  0  0  0  0  0  0
  -14.2315   13.2559  -84.7808 H   0  0  0  0  0  0  0  0  0  0  0  0
  -15.9720   13.4553  -85.1776 H   0  0  0  0  0  0  0  0  0  0  0  0
  -15.4998   12.0027  -83.1747 H   0  0  0  0  0  0  0  0  0  0  0  0
  -16.5957   13.3915  -82.8631 H   0  0  0  0  0  0  0  0  0  0  0  0
  -14.8088   14.6171  -81.7598 H   0  0  0  0  0  0  0  0  0  0  0  0
  -13.6185   13.3417  -82.1878 H   0  0  0  0  0  0  0  0  0  0  0  0
  -14.4827   13.0456  -79.9394 H   0  0  0  0  0  0  0  0  0  0  0  0
  -14.9387   11.7786  -80.8861 H   0  0  0  0  0  0  0  0  0  0  0  0
  -16.0294   12.9474  -80.4939 H   0  0  0  0  0  0  0  0  0  0  0  0
  -15.9044   18.1312  -85.3884 H   0  0  0  0  0  0  0  0  0  0  0  0
  -14.2267   19.3335  -83.3353 H   0  0  0  0  0  0  0  0  0  0  0  0
  -15.1974   20.7302  -85.8537 H   0  0  0  0  0  0  0  0  0  0  0  0
  -13.7956   19.6079  -85.8064 H   0  0  0  0  0  0  0  0  0  0  0  0
  -12.5681   21.0438  -84.3409 H   0  0  0  0  0  0  0  0  0  0  0  0
  -14.0180   22.0420  -83.9831 H   0  0  0  0  0  0  0  0  0  0  0  0
  -14.0275   22.9233  -86.2511 H   0  0  0  0  0  0  0  0  0  0  0  0
  -12.6752   21.8361  -86.7157 H   0  0  0  0  0  0  0  0  0  0  0  0
  -12.5932   24.1517  -84.7225 H   0  0  0  0  0  0  0  0  0  0  0  0
  -11.8023   24.0719  -86.3334 H   0  0  0  0  0  0  0  0  0  0  0  0
  -10.2556   23.6438  -84.5512 H   0  0  0  0  0  0  0  0  0  0  0  0
  -10.4205   22.2971  -85.4832 H   0  0  0  0  0  0  0  0  0  0  0  0
  -11.1452   22.3703  -84.0071 H   0  0  0  0  0  0  0  0  0  0  0  0
  -17.4666   19.9499  -84.6211 H   0  0  0  0  0  0  0  0  0  0  0  0
  -17.6306   22.4658  -83.2115 H   0  0  0  0  0  0  0  0  0  0  0  0
  -19.8683   22.7033  -84.2699 H   0  0  0  0  0  0  0  0  0  0  0  0
  -19.6841   21.0552  -84.9600 H   0  0  0  0  0  0  0  0  0  0  0  0
  -19.1385   22.9819  -86.5252 H   0  0  0  0  0  0  0  0  0  0  0  0
  -17.8655   21.7270  -86.3481 H   0  0  0  0  0  0  0  0  0  0  0  0
  -17.7050   26.1737  -85.2322 H   0  0  0  0  0  0  0  0  0  0  0  0
  -19.0747   25.1329  -84.7150 H   0  0  0  0  0  0  0  0  0  0  0  0
  -18.7301   25.3608  -86.4631 H   0  0  0  0  0  0  0  0  0  0  0  0
  -21.3337   20.7045  -81.0399 H   0  0  0  0  0  0  0  0  0  0  0  0
  -22.1348   18.6641  -81.8230 H   0  0  0  0  0  0  0  0  0  0  0  0
  -21.4698   18.0386  -80.2760 H   0  0  0  0  0  0  0  0  0  0  0  0
  -20.7087   17.0379  -82.6124 H   0  0  0  0  0  0  0  0  0  0  0  0
  -19.5409   17.2634  -81.2663 H   0  0  0  0  0  0  0  0  0  0  0  0
  -18.3950   18.5167  -82.9015 H   0  0  0  0  0  0  0  0  0  0  0  0
  -19.9004   18.9112  -83.7987 H   0  0  0  0  0  0  0  0  0  0  0  0
  1  2  1  0  0  0  0
  1 83  1  0  0  0  0
  1 84  1  0  0  0  0
  1 85  1  0  0  0  0
  2  3  1  0  0  0  0
  2  5  1  0  0  0  0
  2 86  1  6  0  0  0
  3  4  2  0  0  0  0
  3  6  1  0  0  0  0
  5 87  1  0  0  0  0
  5 88  1  0  0  0  0
  5 89  1  0  0  0  0
  6  7  1  0  0  0  0
  6 90  1  0  0  0  0
  7  8  1  0  0  0  0
  7 10  1  0  0  0  0
  7 91  1  6  0  0  0
  8  9  2  0  0  0  0
  8 11  1  0  0  0  0
 10 92  1  0  0  0  0
 10 93  1  0  0  0  0
 10 94  1  0  0  0  0
 11 12  1  0  0  0  0
 11 95  1  0  0  0  0
 12 13  1  0  0  0  0
 12 15  1  0  0  0  0
 12 96  1  1  0  0  0
 13 14  2  0  0  0  0
 13 17  1  0  0  0  0
 15 16  1  0  0  0  0
 15 97  1  0  0  0  0
 15 98  1  0  0  0  0
 16 99  1  0  0  0  0
 17 18  1  0  0  0  0
 17100  1  0  0  0  0
 18 19  1  0  0  0  0
 18 21  1  0  0  0  0
 18101  1  1  0  0  0
 19 20  2  0  0  0  0
 19 28  1  0  0  0  0
 21 22  1  0  0  0  0
 21102  1  0  0  0  0
 21103  1  0  0  0  0
 22 23  2  0  0  0  0
 22 24  1  0  0  0  0
 23 25  1  0  0  0  0
 23104  1  0  0  0  0
 24 26  2  0  0  0  0
 24105  1  0  0  0  0
 25 27  2  0  0  0  0
 25106  1  0  0  0  0
 26 27  1  0  0  0  0
 26107  1  0  0  0  0
 27108  1  0  0  0  0
 28 29  1  0  0  0  0
 28109  1  0  0  0  0
 29 30  1  0  0  0  0
 29 32  1  0  0  0  0
 29110  1  1  0  0  0
 30 31  2  0  0  0  0
 30 36  1  0  0  0  0
 32 33  1  0  0  0  0
 32 34  1  0  0  0  0
 32111  1  6  0  0  0
 33 35  1  0  0  0  0
 33112  1  0  0  0  0
 33113  1  0  0  0  0
 34114  1  0  0  0  0
 34115  1  0  0  0  0
 34116  1  0  0  0  0
 35117  1  0  0  0  0
 35118  1  0  0  0  0
 35119  1  0  0  0  0
 36 37  1  0  0  0  0
 36120  1  0  0  0  0
 37 38  1  0  0  0  0
 37 40  1  0  0  0  0
 37121  1  1  0  0  0
 38 39  2  0  0  0  0
 38 44  1  0  0  0  0
 40 41  1  0  0  0  0
 40122  1  0  0  0  0
 40123  1  0  0  0  0
 41 42  1  0  0  0  0
 41 43  2  0  0  0  0
 44 45  1  0  0  0  0
 44124  1  0  0  0  0
 45 46  1  0  0  0  0
 45 48  1  0  0  0  0
 45125  1  1  0  0  0
 46 47  2  0  0  0  0
 46 49  1  0  0  0  0
 48126  1  0  0  0  0
 48127  1  0  0  0  0
 48128  1  0  0  0  0
 49 50  1  0  0  0  0
 49129  1  0  0  0  0
 50 51  1  0  0  0  0
 50 53  1  0  0  0  0
 50130  1  1  0  0  0
 51 52  2  0  0  0  0
 51 58  1  0  0  0  0
 53 54  1  0  0  0  0
 53131  1  0  0  0  0
 53132  1  0  0  0  0
 54 55  1  0  0  0  0
 54133  1  0  0  0  0
 54134  1  0  0  0  0
 55 56  1  0  0  0  0
 55135  1  0  0  0  0
 55136  1  0  0  0  0
 56 57  1  0  0  0  0
 56137  1  0  0  0  0
 56138  1  0  0  0  0
 57139  1  0  0  0  0
 57140  1  0  0  0  0
 57141  1  0  0  0  0
 58 59  1  0  0  0  0
 58142  1  0  0  0  0
 59 60  1  0  0  0  0
 59 62  1  0  0  0  0
 59143  1  1  0  0  0
 60 61  2  0  0  0  0
 60 67  1  0  0  0  0
 62 63  1  0  0  0  0
 62144  1  0  0  0  0
 62145  1  0  0  0  0
 63 64  1  0  0  0  0
 63146  1  0  0  0  0
 63147  1  0  0  0  0
 64 65  1  0  0  0  0
 64148  1  0  0  0  0
 64149  1  0  0  0  0
 65 66  1  0  0  0  0
 65150  1  0  0  0  0
 65151  1  0  0  0  0
 66152  1  0  0  0  0
 66153  1  0  0  0  0
 66154  1  0  0  0  0
 67 68  1  0  0  0  0
 67155  1  0  0  0  0
 68 69  1  0  0  0  0
 68 71  1  0  0  0  0
 68156  1  1  0  0  0
 69 70  2  0  0  0  0
 69 75  1  0  0  0  0
 71 72  1  0  0  0  0
 71157  1  0  0  0  0
 71158  1  0  0  0  0
 72 73  1  0  0  0  0
 72159  1  0  0  0  0
 72160  1  0  0  0  0
 73 74  1  0  0  0  0
 74161  1  0  0  0  0
 74162  1  0  0  0  0
 74163  1  0  0  0  0
 75 76  1  0  0  0  0
 75 81  1  0  0  0  0
 76 77  1  0  0  0  0
 76 79  1  0  0  0  0
 76164  1  6  0  0  0
 77 78  1  0  0  0  0
 77 82  2  0  0  0  0
 79 80  1  0  0  0  0
 79165  1  0  0  0  0
 79166  1  0  0  0  0
 80 81  1  0  0  0  0
 80167  1  0  0  0  0
 80168  1  0  0  0  0
 81169  1  0  0  0  0
 81170  1  0  0  0  0
M  CHG  5   1   1  42  -1  57   1  66   1  78  -1
M  END
