4j8s_ligand
 OpenBabel08222323353D

218219  0  0  1  0  0  0  0  0999 V2000
    9.8250    2.3180   29.1810 N   0  3  0  0  0  0  0  0  0  0  0  0
   10.9800    2.1500   28.2990 C   0  0  2  0  0  0  0  0  0  0  0  0
   12.1860    1.4890   29.0040 C   0  0  0  0  0  0  0  0  0  0  0  0
   13.2940    1.4790   28.4510 O   0  0  0  0  0  0  0  0  0  0  0  0
   11.4350    3.5180   27.7440 C   0  0  0  0  0  0  0  0  0  0  0  0
   10.3410    4.5910   27.6130 C   0  0  0  0  0  0  0  0  0  0  0  0
   10.9710    5.9950   27.4320 C   0  0  0  0  0  0  0  0  0  0  0  0
   10.3010    6.7880   26.3920 N   0  0  0  0  0  0  0  0  0  0  0  0
   10.3590    6.5180   25.0900 C   0  0  0  0  0  3  0  0  0  0  0  0
   11.0300    5.4580   24.6530 N   0  0  0  0  0  0  0  0  0  0  0  0
    9.7240    7.2940   24.2150 N   0  0  0  0  0  0  0  0  0  0  0  0
   11.9840    0.9280   30.1980 N   0  0  0  0  0  0  0  0  0  0  0  0
   13.1190    0.5480   31.0530 C   0  0  2  0  0  0  0  0  0  0  0  0
   14.0000   -0.5690   30.5040 C   0  0  0  0  0  0  0  0  0  0  0  0
   13.5060   -1.5460   29.9070 O   0  0  0  0  0  0  0  0  0  0  0  0
   12.6520    0.1230   32.4470 C   0  0  0  0  0  0  0  0  0  0  0  0
   11.8630    1.1680   33.1740 C   0  0  0  0  0  0  0  0  0  0  0  0
   11.4220    0.5900   34.4670 C   0  0  0  0  0  0  0  0  0  0  0  0
   12.4560    0.6960   35.4870 N   0  0  0  0  0  0  0  0  0  0  0  0
   12.4140    0.0490   36.6410 C   0  0  0  0  0  3  0  0  0  0  0  0
   11.4060   -0.7740   36.9100 N   0  0  0  0  0  0  0  0  0  0  0  0
   13.3630    0.2450   37.5370 N   0  0  0  0  0  0  0  0  0  0  0  0
   15.3020   -0.4380   30.7300 N   0  0  0  0  0  0  0  0  0  0  0  0
   16.2330   -1.4940   30.3320 C   0  0  2  0  0  0  0  0  0  0  0  0
   16.0170   -2.6970   31.2710 C   0  0  0  0  0  0  0  0  0  0  0  0
   15.7450   -2.5220   32.4610 O   0  0  0  0  0  0  0  0  0  0  0  0
   17.6820   -1.0110   30.4120 C   0  0  0  0  0  0  0  0  0  0  0  0
   18.0910    0.1260   29.4780 C   0  0  0  0  0  0  0  0  0  0  0  0
   19.5130    0.5820   29.7970 C   0  0  0  0  0  0  0  0  0  0  0  0
   17.9340   -0.2650   27.9950 C   0  0  0  0  0  0  0  0  0  0  0  0
   16.1750   -3.9100   30.7570 N   0  0  0  0  0  0  0  0  0  0  0  0
   15.8970   -5.1010   31.5630 C   0  0  2  0  0  0  0  0  0  0  0  0
   16.6500   -5.1380   32.8740 C   0  0  0  0  0  0  0  0  0  0  0  0
   16.0940   -5.6100   33.8690 O   0  0  0  0  0  0  0  0  0  0  0  0
   16.3310   -6.2580   30.6520 C   0  0  0  0  0  0  0  0  0  0  0  0
   16.2400   -5.7110   29.2760 C   0  0  0  0  0  0  0  0  0  0  0  0
   16.5440   -4.2540   29.3790 C   0  0  0  0  0  0  0  0  0  0  0  0
   17.8880   -4.6630   32.8900 N   0  0  0  0  0  0  0  0  0  0  0  0
   18.7030   -4.7090   34.1110 C   0  0  2  0  0  0  0  0  0  0  0  0
   18.0170   -3.9560   35.2590 C   0  0  0  0  0  0  0  0  0  0  0  0
   18.0480   -4.3930   36.4170 O   0  0  0  0  0  0  0  0  0  0  0  0
   20.1230   -4.1640   33.8700 C   0  0  2  0  0  0  0  0  0  0  0  0
   20.9710   -4.2620   35.1460 C   0  0  0  0  0  0  0  0  0  0  0  0
   20.1100   -2.6970   33.4190 C   0  0  0  0  0  0  0  0  0  0  0  0
   21.0470   -5.6800   35.7470 C   0  0  0  0  0  0  0  0  0  0  0  0
   17.3380   -2.8590   34.9380 N   0  0  0  0  0  0  0  0  0  0  0  0
   16.6990   -2.0770   35.9930 C   0  0  2  0  0  0  0  0  0  0  0  0
   15.4040   -2.7120   36.4880 C   0  0  0  0  0  0  0  0  0  0  0  0
   15.0500   -2.6150   37.6760 O   0  0  0  0  0  0  0  0  0  0  0  0
   16.4810   -0.6520   35.5050 C   0  0  0  0  0  0  0  0  0  0  0  0
   17.7530    0.1070   35.2990 C   0  0  0  0  0  0  0  0  0  0  0  0
   18.6390    0.3100   36.3440 C   0  0  0  0  0  0  0  0  0  0  0  0
   18.0530    0.6530   34.0700 C   0  0  0  0  0  0  0  0  0  0  0  0
   19.8130    1.0310   36.1550 C   0  0  0  0  0  0  0  0  0  0  0  0
   19.1940    1.3400   33.8680 C   0  0  0  0  0  0  0  0  0  0  0  0
   20.0900    1.5570   34.9230 C   0  0  0  0  0  0  0  0  0  0  0  0
   14.6620   -3.3190   35.5750 N   0  0  0  0  0  0  0  0  0  0  0  0
   13.4980   -4.0870   35.9490 C   0  0  2  0  0  0  0  0  0  0  0  0
   13.9430   -5.1730   36.9080 C   0  0  0  0  0  0  0  0  0  0  0  0
   13.2540   -5.4740   37.8790 O   0  0  0  0  0  0  0  0  0  0  0  0
   12.8660   -4.7590   34.7220 C   0  0  0  0  0  0  0  0  0  0  0  0
   11.9910   -3.8210   33.8990 C   0  0  0  0  0  0  0  0  0  0  0  0
   12.1070   -3.7580   32.6660 O   0  0  0  0  0  0  0  0  0  0  0  0
   11.0880   -3.1200   34.5660 N   0  0  0  0  0  0  0  0  0  0  0  0
   15.1060   -5.7650   36.6180 N   0  0  0  0  0  0  0  0  0  0  0  0
   15.5970   -6.8960   37.3880 C   0  0  2  0  0  0  0  0  0  0  0  0
   15.9760   -6.5180   38.8200 C   0  0  0  0  0  0  0  0  0  0  0  0
   15.6460   -7.2330   39.7620 O   0  0  0  0  0  0  0  0  0  0  0  0
   16.8020   -7.5470   36.6970 C   0  0  0  0  0  0  0  0  0  0  0  0
   17.2570   -8.8290   37.3840 C   0  0  0  0  0  0  0  0  0  0  0  0
   18.7350   -9.0990   37.1600 C   0  0  0  0  0  0  0  0  0  0  0  0
   19.0430   -9.3110   35.7520 N   0  0  0  0  0  0  0  0  0  0  0  0
   20.2760   -9.3280   35.2530 C   0  0  0  0  0  3  0  0  0  0  0  0
   21.3270   -9.1390   36.0500 N   0  0  0  0  0  0  0  0  0  0  0  0
   20.4550   -9.5280   33.9540 N   0  0  0  0  0  0  0  0  0  0  0  0
   16.6940   -5.4220   38.9860 N   0  0  0  0  0  0  0  0  0  0  0  0
   17.2080   -5.1230   40.3230 C   0  0  2  0  0  0  0  0  0  0  0  0
   16.1460   -4.4600   41.1910 C   0  0  0  0  0  0  0  0  0  0  0  0
   16.1680   -4.6020   42.4140 O   0  0  0  0  0  0  0  0  0  0  0  0
   18.4900   -4.2970   40.2810 C   0  0  2  0  0  0  0  0  0  0  0  0
   18.2510   -2.9300   39.6810 C   0  0  0  0  0  0  0  0  0  0  0  0
   19.5680   -5.0420   39.4710 C   0  0  0  0  0  0  0  0  0  0  0  0
   19.4690   -2.0320   39.8050 C   0  0  0  0  0  0  0  0  0  0  0  0
   15.1960   -3.7830   40.5460 N   0  0  0  0  0  0  0  0  0  0  0  0
   14.1040   -3.0910   41.2480 C   0  0  2  0  0  0  0  0  0  0  0  0
   13.1470   -4.0130   41.9980 C   0  0  0  0  0  0  0  0  0  0  0  0
   12.5800   -4.9430   41.4230 O   0  0  0  0  0  0  0  0  0  0  0  0
   13.2780   -2.2680   40.2540 C   0  0  0  0  0  0  0  0  0  0  0  0
   13.9720   -1.1100   39.8760 O   0  0  0  0  0  0  0  0  0  0  0  0
   12.9520   -3.7400   43.2840 N   0  0  0  0  0  0  0  0  0  0  0  0
   11.8950   -4.3950   44.0610 C   0  0  2  0  0  0  0  0  0  0  0  0
   10.6410   -3.5170   44.0510 C   0  0  0  0  0  0  0  0  0  0  0  0
   10.5730   -2.5100   44.7500 O   0  0  0  0  0  0  0  0  0  0  0  0
   12.3310   -4.6610   45.5220 C   0  0  0  0  0  0  0  0  0  0  0  0
   11.1750   -5.2600   46.3170 C   0  0  0  0  0  0  0  0  0  0  0  0
   13.5310   -5.6000   45.5590 C   0  0  0  0  0  0  0  0  0  0  0  0
    9.6570   -3.9010   43.2370 N   0  0  0  0  0  0  0  0  0  0  0  0
    8.4570   -3.0930   43.0500 C   0  0  2  0  0  0  0  0  0  0  0  0
    7.3460   -3.5290   43.9950 C   0  0  0  0  0  0  0  0  0  0  0  0
    6.1787   -3.0731   43.8642 O   0  5  0  0  0  0  0  0  0  0  0  0
    7.9780   -3.2100   41.6070 C   0  0  0  0  0  0  0  0  0  0  0  0
    7.6110   -4.5490   41.3090 O   0  0  0  0  0  0  0  0  0  0  0  0
    7.5958   -4.3524   44.9155 O   0  0  0  0  0  0  0  0  0  0  0  0
    9.0722    2.7518   28.6699 H   0  0  0  0  0  0  0  0  0  0  0  0
   10.0808    2.9015   29.9621 H   0  0  0  0  0  0  0  0  0  0  0  0
    9.5261    1.4165   29.5186 H   0  0  0  0  0  0  0  0  0  0  0  0
   10.6750    1.5084   27.4592 H   0  0  0  0  0  0  0  0  0  0  0  0
   11.8628    3.3501   26.7446 H   0  0  0  0  0  0  0  0  0  0  0  0
   12.2131    3.9112   28.4147 H   0  0  0  0  0  0  0  0  0  0  0  0
    9.7211    4.5877   28.5217 H   0  0  0  0  0  0  0  0  0  0  0  0
    9.7128    4.3617   26.7397 H   0  0  0  0  0  0  0  0  0  0  0  0
   12.0285    5.8730   27.1548 H   0  0  0  0  0  0  0  0  0  0  0  0
   10.9024    6.5372   28.3866 H   0  0  0  0  0  0  0  0  0  0  0  0
    9.7507    7.6061   26.6900 H   0  0  0  0  0  0  0  0  0  0  0  0
   11.0711    5.2545   23.6441 H   0  0  0  0  0  0  0  0  0  0  0  0
   11.5091    4.8396   25.3230 H   0  0  0  0  0  0  0  0  0  0  0  0
    9.2007    8.1184   24.5427 H   0  0  0  0  0  0  0  0  0  0  0  0
    9.7559    7.0702   23.2101 H   0  0  0  0  0  0  0  0  0  0  0  0
   11.0499    0.7640   30.5152 H   0  0  0  0  0  0  0  0  0  0  0  0
   13.7489    1.4435   31.1593 H   0  0  0  0  0  0  0  0  0  0  0  0
   13.5398   -0.1203   33.0492 H   0  0  0  0  0  0  0  0  0  0  0  0
   12.0232   -0.7734   32.3420 H   0  0  0  0  0  0  0  0  0  0  0  0
   10.9864    1.4577   32.5760 H   0  0  0  0  0  0  0  0  0  0  0  0
   12.4918    2.0522   33.3552 H   0  0  0  0  0  0  0  0  0  0  0  0
   11.1770   -0.4719   34.3174 H   0  0  0  0  0  0  0  0  0  0  0  0
   10.5263    1.1281   34.8107 H   0  0  0  0  0  0  0  0  0  0  0  0
   13.2636    1.3074   35.3004 H   0  0  0  0  0  0  0  0  0  0  0  0
   11.3767   -1.2758   37.8090 H   0  0  0  0  0  0  0  0  0  0  0  0
   10.6540   -0.9102   36.2195 H   0  0  0  0  0  0  0  0  0  0  0  0
   14.1443    0.8829   37.3285 H   0  0  0  0  0  0  0  0  0  0  0  0
   13.3223   -0.2400   38.4448 H   0  0  0  0  0  0  0  0  0  0  0  0
   15.6483    0.3878   31.1751 H   0  0  0  0  0  0  0  0  0  0  0  0
   16.0174   -1.7957   29.2964 H   0  0  0  0  0  0  0  0  0  0  0  0
   18.3304   -1.8713   30.1897 H   0  0  0  0  0  0  0  0  0  0  0  0
   17.8618   -0.6730   31.4432 H   0  0  0  0  0  0  0  0  0  0  0  0
   17.4167    0.9741   29.6675 H   0  0  0  0  0  0  0  0  0  0  0  0
   19.7964    1.4003   29.1188 H   0  0  0  0  0  0  0  0  0  0  0  0
   20.2069   -0.2611   29.6643 H   0  0  0  0  0  0  0  0  0  0  0  0
   19.5600    0.9354   30.8376 H   0  0  0  0  0  0  0  0  0  0  0  0
   16.8987   -0.5863   27.8082 H   0  0  0  0  0  0  0  0  0  0  0  0
   18.6222   -1.0898   27.7584 H   0  0  0  0  0  0  0  0  0  0  0  0
   18.1690    0.6021   27.3603 H   0  0  0  0  0  0  0  0  0  0  0  0
   14.8201   -5.1638   31.7783 H   0  0  0  0  0  0  0  0  0  0  0  0
   15.6575   -7.1194   30.7719 H   0  0  0  0  0  0  0  0  0  0  0  0
   17.3626   -6.5646   30.8797 H   0  0  0  0  0  0  0  0  0  0  0  0
   15.2272   -5.8604   28.8737 H   0  0  0  0  0  0  0  0  0  0  0  0
   16.9716   -6.2065   28.6208 H   0  0  0  0  0  0  0  0  0  0  0  0
   17.6129   -4.0643   29.2016 H   0  0  0  0  0  0  0  0  0  0  0  0
   15.9449   -3.6779   28.6585 H   0  0  0  0  0  0  0  0  0  0  0  0
   18.2732   -4.2668   32.0566 H   0  0  0  0  0  0  0  0  0  0  0  0
   18.7967   -5.7636   34.4092 H   0  0  0  0  0  0  0  0  0  0  0  0
   20.5930   -4.7706   33.0819 H   0  0  0  0  0  0  0  0  0  0  0  0
   20.5370   -3.5901   35.9011 H   0  0  0  0  0  0  0  0  0  0  0  0
   21.9932   -3.9334   34.9070 H   0  0  0  0  0  0  0  0  0  0  0  0
   19.5072   -2.6001   32.5040 H   0  0  0  0  0  0  0  0  0  0  0  0
   21.1394   -2.3664   33.2166 H   0  0  0  0  0  0  0  0  0  0  0  0
   19.6739   -2.0731   34.2131 H   0  0  0  0  0  0  0  0  0  0  0  0
   21.6701   -5.6612   36.6533 H   0  0  0  0  0  0  0  0  0  0  0  0
   21.4907   -6.3668   35.0112 H   0  0  0  0  0  0  0  0  0  0  0  0
   20.0345   -6.0235   36.0053 H   0  0  0  0  0  0  0  0  0  0  0  0
   17.2655   -2.5719   33.9828 H   0  0  0  0  0  0  0  0  0  0  0  0
   17.3908   -2.0388   36.8473 H   0  0  0  0  0  0  0  0  0  0  0  0
   15.8730   -0.1176   36.2498 H   0  0  0  0  0  0  0  0  0  0  0  0
   15.9391   -0.6902   34.5485 H   0  0  0  0  0  0  0  0  0  0  0  0
   18.4142   -0.0987   37.3225 H   0  0  0  0  0  0  0  0  0  0  0  0
   17.3566    0.5271   33.2489 H   0  0  0  0  0  0  0  0  0  0  0  0
   20.5036    1.1752   36.9780 H   0  0  0  0  0  0  0  0  0  0  0  0
   19.4207    1.7280   32.8815 H   0  0  0  0  0  0  0  0  0  0  0  0
   20.9930    2.1355   34.7647 H   0  0  0  0  0  0  0  0  0  0  0  0
   14.9120   -3.2443   34.6096 H   0  0  0  0  0  0  0  0  0  0  0  0
   12.7598   -3.4305   36.4327 H   0  0  0  0  0  0  0  0  0  0  0  0
   12.2468   -5.6005   35.0661 H   0  0  0  0  0  0  0  0  0  0  0  0
   13.6733   -5.1372   34.0776 H   0  0  0  0  0  0  0  0  0  0  0  0
   10.4855   -2.4881   34.0784 H   0  0  0  0  0  0  0  0  0  0  0  0
   11.0082   -3.2223   35.5576 H   0  0  0  0  0  0  0  0  0  0  0  0
   15.6512   -5.4216   35.8532 H   0  0  0  0  0  0  0  0  0  0  0  0
   14.7873   -7.6389   37.4388 H   0  0  0  0  0  0  0  0  0  0  0  0
   17.6374   -6.8314   36.7001 H   0  0  0  0  0  0  0  0  0  0  0  0
   16.5259   -7.7839   35.6589 H   0  0  0  0  0  0  0  0  0  0  0  0
   16.6767   -9.6728   36.9823 H   0  0  0  0  0  0  0  0  0  0  0  0
   17.0721   -8.7382   38.4645 H   0  0  0  0  0  0  0  0  0  0  0  0
   19.0217   -9.9978   37.7256 H   0  0  0  0  0  0  0  0  0  0  0  0
   19.3129   -8.2368   37.5241 H   0  0  0  0  0  0  0  0  0  0  0  0
   18.2571   -9.4568   35.1024 H   0  0  0  0  0  0  0  0  0  0  0  0
   22.2795   -9.1532   35.6583 H   0  0  0  0  0  0  0  0  0  0  0  0
   21.1869   -8.9787   37.0578 H   0  0  0  0  0  0  0  0  0  0  0  0
   19.6421   -9.6740   33.3386 H   0  0  0  0  0  0  0  0  0  0  0  0
   21.4069   -9.5373   33.5607 H   0  0  0  0  0  0  0  0  0  0  0  0
   16.8818   -4.8113   38.2167 H   0  0  0  0  0  0  0  0  0  0  0  0
   17.4598   -6.0846   40.7940 H   0  0  0  0  0  0  0  0  0  0  0  0
   18.8513   -4.1652   41.3116 H   0  0  0  0  0  0  0  0  0  0  0  0
   17.4063   -2.4562   40.2026 H   0  0  0  0  0  0  0  0  0  0  0  0
   18.0043   -3.0483   38.6156 H   0  0  0  0  0  0  0  0  0  0  0  0
   19.7371   -6.0353   39.9124 H   0  0  0  0  0  0  0  0  0  0  0  0
   20.5054   -4.4669   39.4922 H   0  0  0  0  0  0  0  0  0  0  0  0
   19.2312   -5.1559   38.4301 H   0  0  0  0  0  0  0  0  0  0  0  0
   19.2491   -1.0519   39.3565 H   0  0  0  0  0  0  0  0  0  0  0  0
   20.3192   -2.4927   39.2806 H   0  0  0  0  0  0  0  0  0  0  0  0
   19.7211   -1.9007   40.8676 H   0  0  0  0  0  0  0  0  0  0  0  0
   15.2268   -3.7440   39.5472 H   0  0  0  0  0  0  0  0  0  0  0  0
   14.5612   -2.4092   41.9802 H   0  0  0  0  0  0  0  0  0  0  0  0
   12.3261   -1.9815   40.7249 H   0  0  0  0  0  0  0  0  0  0  0  0
   13.0764   -2.8766   39.3602 H   0  0  0  0  0  0  0  0  0  0  0  0
   14.7937   -1.3541   39.4665 H   0  0  0  0  0  0  0  0  0  0  0  0
   13.5422   -3.0697   43.7339 H   0  0  0  0  0  0  0  0  0  0  0  0
   11.6600   -5.3594   43.5870 H   0  0  0  0  0  0  0  0  0  0  0  0
   12.6182   -3.7043   45.9827 H   0  0  0  0  0  0  0  0  0  0  0  0
   11.4983   -5.4438   47.3522 H   0  0  0  0  0  0  0  0  0  0  0  0
   10.8657   -6.2094   45.8555 H   0  0  0  0  0  0  0  0  0  0  0  0
   10.3275   -4.5588   46.3166 H   0  0  0  0  0  0  0  0  0  0  0  0
   14.3588   -5.1599   44.9836 H   0  0  0  0  0  0  0  0  0  0  0  0
   13.2524   -6.5686   45.1183 H   0  0  0  0  0  0  0  0  0  0  0  0
   13.8479   -5.7491   46.6017 H   0  0  0  0  0  0  0  0  0  0  0  0
    9.7440   -4.7654   42.7419 H   0  0  0  0  0  0  0  0  0  0  0  0
    8.7048   -2.0420   43.2599 H   0  0  0  0  0  0  0  0  0  0  0  0
    8.7877   -2.8982   40.9309 H   0  0  0  0  0  0  0  0  0  0  0  0
    7.1061   -2.5553   41.4613 H   0  0  0  0  0  0  0  0  0  0  0  0
    8.3627   -5.1169   41.4312 H   0  0  0  0  0  0  0  0  0  0  0  0
  1  2  1  0  0  0  0
  1104  1  0  0  0  0
  1105  1  0  0  0  0
  1106  1  0  0  0  0
  2  3  1  0  0  0  0
  2  5  1  0  0  0  0
  2107  1  6  0  0  0
  3  4  2  0  0  0  0
  3 12  1  0  0  0  0
  5  6  1  0  0  0  0
  5108  1  0  0  0  0
  5109  1  0  0  0  0
  6  7  1  0  0  0  0
  6110  1  0  0  0  0
  6111  1  0  0  0  0
  7  8  1  0  0  0  0
  7112  1  0  0  0  0
  7113  1  0  0  0  0
  8  9  1  0  0  0  0
  8114  1  0  0  0  0
  9 10  1  0  0  0  0
  9 11  1  0  0  0  0
 10115  1  0  0  0  0
 10116  1  0  0  0  0
 11117  1  0  0  0  0
 11118  1  0  0  0  0
 12 13  1  0  0  0  0
 12119  1  0  0  0  0
 13 14  1  0  0  0  0
 13 16  1  0  0  0  0
 13120  1  1  0  0  0
 14 15  2  0  0  0  0
 14 23  1  0  0  0  0
 16 17  1  0  0  0  0
 16121  1  0  0  0  0
 16122  1  0  0  0  0
 17 18  1  0  0  0  0
 17123  1  0  0  0  0
 17124  1  0  0  0  0
 18 19  1  0  0  0  0
 18125  1  0  0  0  0
 18126  1  0  0  0  0
 19 20  1  0  0  0  0
 19127  1  0  0  0  0
 20 21  1  0  0  0  0
 20 22  1  0  0  0  0
 21128  1  0  0  0  0
 21129  1  0  0  0  0
 22130  1  0  0  0  0
 22131  1  0  0  0  0
 23 24  1  0  0  0  0
 23132  1  0  0  0  0
 24 25  1  0  0  0  0
 24 27  1  0  0  0  0
 24133  1  6  0  0  0
 25 26  2  0  0  0  0
 25 31  1  0  0  0  0
 27 28  1  0  0  0  0
 27134  1  0  0  0  0
 27135  1  0  0  0  0
 28 29  1  0  0  0  0
 28 30  1  0  0  0  0
 28136  1  0  0  0  0
 29137  1  0  0  0  0
 29138  1  0  0  0  0
 29139  1  0  0  0  0
 30140  1  0  0  0  0
 30141  1  0  0  0  0
 30142  1  0  0  0  0
 31 32  1  0  0  0  0
 31 37  1  0  0  0  0
 32 33  1  0  0  0  0
 32 35  1  0  0  0  0
 32143  1  1  0  0  0
 33 34  2  0  0  0  0
 33 38  1  0  0  0  0
 35 36  1  0  0  0  0
 35144  1  0  0  0  0
 35145  1  0  0  0  0
 36 37  1  0  0  0  0
 36146  1  0  0  0  0
 36147  1  0  0  0  0
 37148  1  0  0  0  0
 37149  1  0  0  0  0
 38 39  1  0  0  0  0
 38150  1  0  0  0  0
 39 40  1  0  0  0  0
 39 42  1  0  0  0  0
 39151  1  1  0  0  0
 40 41  2  0  0  0  0
 40 46  1  0  0  0  0
 42 43  1  0  0  0  0
 42 44  1  0  0  0  0
 42152  1  6  0  0  0
 43 45  1  0  0  0  0
 43153  1  0  0  0  0
 43154  1  0  0  0  0
 44155  1  0  0  0  0
 44156  1  0  0  0  0
 44157  1  0  0  0  0
 45158  1  0  0  0  0
 45159  1  0  0  0  0
 45160  1  0  0  0  0
 46 47  1  0  0  0  0
 46161  1  0  0  0  0
 47 48  1  0  0  0  0
 47 50  1  0  0  0  0
 47162  1  1  0  0  0
 48 49  2  0  0  0  0
 48 57  1  0  0  0  0
 50 51  1  0  0  0  0
 50163  1  0  0  0  0
 50164  1  0  0  0  0
 51 52  2  0  0  0  0
 51 53  1  0  0  0  0
 52 54  1  0  0  0  0
 52165  1  0  0  0  0
 53 55  2  0  0  0  0
 53166  1  0  0  0  0
 54 56  2  0  0  0  0
 54167  1  0  0  0  0
 55 56  1  0  0  0  0
 55168  1  0  0  0  0
 56169  1  0  0  0  0
 57 58  1  0  0  0  0
 57170  1  0  0  0  0
 58 59  1  0  0  0  0
 58 61  1  0  0  0  0
 58171  1  1  0  0  0
 59 60  2  0  0  0  0
 59 65  1  0  0  0  0
 61 62  1  0  0  0  0
 61172  1  0  0  0  0
 61173  1  0  0  0  0
 62 63  2  0  0  0  0
 62 64  1  0  0  0  0
 64174  1  0  0  0  0
 64175  1  0  0  0  0
 65 66  1  0  0  0  0
 65176  1  0  0  0  0
 66 67  1  0  0  0  0
 66 69  1  0  0  0  0
 66177  1  1  0  0  0
 67 68  2  0  0  0  0
 67 76  1  0  0  0  0
 69 70  1  0  0  0  0
 69178  1  0  0  0  0
 69179  1  0  0  0  0
 70 71  1  0  0  0  0
 70180  1  0  0  0  0
 70181  1  0  0  0  0
 71 72  1  0  0  0  0
 71182  1  0  0  0  0
 71183  1  0  0  0  0
 72 73  1  0  0  0  0
 72184  1  0  0  0  0
 73 74  1  0  0  0  0
 73 75  1  0  0  0  0
 74185  1  0  0  0  0
 74186  1  0  0  0  0
 75187  1  0  0  0  0
 75188  1  0  0  0  0
 76 77  1  0  0  0  0
 76189  1  0  0  0  0
 77 78  1  0  0  0  0
 77 80  1  0  0  0  0
 77190  1  1  0  0  0
 78 79  2  0  0  0  0
 78 84  1  0  0  0  0
 80 81  1  0  0  0  0
 80 82  1  0  0  0  0
 80191  1  1  0  0  0
 81 83  1  0  0  0  0
 81192  1  0  0  0  0
 81193  1  0  0  0  0
 82194  1  0  0  0  0
 82195  1  0  0  0  0
 82196  1  0  0  0  0
 83197  1  0  0  0  0
 83198  1  0  0  0  0
 83199  1  0  0  0  0
 84 85  1  0  0  0  0
 84200  1  0  0  0  0
 85 86  1  0  0  0  0
 85 88  1  0  0  0  0
 85201  1  1  0  0  0
 86 87  2  0  0  0  0
 86 90  1  0  0  0  0
 88 89  1  0  0  0  0
 88202  1  0  0  0  0
 88203  1  0  0  0  0
 89204  1  0  0  0  0
 90 91  1  0  0  0  0
 90205  1  0  0  0  0
 91 92  1  0  0  0  0
 91 94  1  0  0  0  0
 91206  1  6  0  0  0
 92 93  2  0  0  0  0
 92 97  1  0  0  0  0
 94 95  1  0  0  0  0
 94 96  1  0  0  0  0
 94207  1  0  0  0  0
 95208  1  0  0  0  0
 95209  1  0  0  0  0
 95210  1  0  0  0  0
 96211  1  0  0  0  0
 96212  1  0  0  0  0
 96213  1  0  0  0  0
 97 98  1  0  0  0  0
 97214  1  0  0  0  0
 98 99  1  0  0  0  0
 98101  1  0  0  0  0
 98215  1  1  0  0  0
 99100  1  0  0  0  0
 99103  2  0  0  0  0
101102  1  0  0  0  0
101216  1  0  0  0  0
101217  1  0  0  0  0
102218  1  0  0  0  0
M  CHG  2   1   1 100  -1
M  END
