4jaj_ligand
 OpenBabel08222323353D

 23 25  0  0  0  0  0  0  0  0999 V2000
   -5.7120  -30.1240    3.4730 C   0  0  0  0  0  0  0  0  0  0  0  0
   -5.6200  -30.0330    4.8690 C   0  0  0  0  0  0  0  0  0  0  0  0
   -4.9410  -31.0610    5.4390 C   0  0  0  0  0  0  0  0  0  0  0  0
   -4.8580  -31.0160    6.8830 C   0  0  0  0  0  0  0  0  0  0  0  0
   -5.1240  -31.1930    2.7480 C   0  0  0  0  0  0  0  0  0  0  0  0
   -4.4300  -32.2100    3.4070 C   0  0  0  0  0  0  0  0  0  0  0  0
   -4.3530  -32.1030    4.7670 C   0  0  0  0  0  0  0  0  0  0  0  0
   -3.6480  -33.0940    5.6190 C   0  0  0  0  0  0  0  0  0  0  0  0
   -3.0290  -34.0860    5.2040 O   0  0  0  0  0  0  0  0  0  0  0  0
   -3.6260  -32.9770    6.9320 N   0  0  0  0  0  0  0  0  0  0  0  0
   -4.1970  -31.9900    7.5850 C   0  0  0  0  0  0  0  0  0  0  0  0
   -4.0920  -31.9490    8.9170 N   0  0  0  0  0  0  0  0  0  0  0  0
   -4.6730  -30.9450    9.5720 C   0  0  0  0  0  0  0  0  0  0  0  0
   -5.3490  -29.9520    8.8780 C   0  0  0  0  0  0  0  0  0  0  0  0
   -5.4440  -29.9720    7.5290 C   0  0  0  0  0  0  0  0  0  0  0  0
   -6.2488  -29.3541    2.9307 H   0  0  0  0  0  0  0  0  0  0  0  0
   -6.0507  -29.2182    5.4397 H   0  0  0  0  0  0  0  0  0  0  0  0
   -5.2148  -31.2205    1.6682 H   0  0  0  0  0  0  0  0  0  0  0  0
   -3.9784  -33.0366    2.8705 H   0  0  0  0  0  0  0  0  0  0  0  0
   -3.1480  -33.6786    7.4605 H   0  0  0  0  0  0  0  0  0  0  0  0
   -4.6172  -30.9037   10.6538 H   0  0  0  0  0  0  0  0  0  0  0  0
   -5.8116  -29.1416    9.4295 H   0  0  0  0  0  0  0  0  0  0  0  0
   -5.9641  -29.1907    6.9866 H   0  0  0  0  0  0  0  0  0  0  0  0
  1  2  2  0  0  0  0
  1  5  1  0  0  0  0
  1 16  1  0  0  0  0
  2  3  1  0  0  0  0
  2 17  1  0  0  0  0
  3  4  1  0  0  0  0
  3  7  2  0  0  0  0
  4 11  2  0  0  0  0
  4 15  1  0  0  0  0
  5  6  2  0  0  0  0
  5 18  1  0  0  0  0
  6  7  1  0  0  0  0
  6 19  1  0  0  0  0
  7  8  1  0  0  0  0
  8  9  2  0  0  0  0
  8 10  1  0  0  0  0
 10 11  1  0  0  0  0
 10 20  1  0  0  0  0
 11 12  1  0  0  0  0
 12 13  2  0  0  0  0
 13 14  1  0  0  0  0
 13 21  1  0  0  0  0
 14 15  2  0  0  0  0
 14 22  1  0  0  0  0
 15 23  1  0  0  0  0
M  END
