4jaz_ligand
 OpenBabel08222323353D

 29 30  0  0  0  0  0  0  0  0999 V2000
   15.8670   19.4060    9.8370 C   0  0  0  0  0  0  0  0  0  0  0  0
   14.4270   19.4980    9.8600 C   0  0  0  0  0  0  0  0  0  0  0  0
   13.8340   20.7400    9.4010 C   0  0  0  0  0  0  0  0  0  0  0  0
   14.6700   21.8450    8.9410 C   0  0  0  0  0  0  0  0  0  0  0  0
   16.1150   21.7000    8.9210 C   0  0  0  0  0  0  0  0  0  0  0  0
   16.7160   20.4740    9.3740 C   0  0  0  0  0  0  0  0  0  0  0  0
   17.0230   22.7370    8.4410 C   0  0  0  0  0  0  0  0  0  0  0  0
   16.5370   23.9320    7.8390 C   0  0  0  0  0  0  0  0  0  0  0  0
   17.3800   24.9920    7.3160 C   0  0  0  0  0  0  0  0  0  0  0  0
   18.8390   24.9170    7.3580 C   0  0  0  0  0  0  0  0  0  0  0  0
   19.6290   26.0230    6.8040 C   0  0  0  0  0  0  0  0  0  0  0  0
   18.9470   27.1540    6.2310 C   0  0  0  0  0  0  0  0  0  0  0  0
   17.4920   27.2470    6.1790 C   0  0  0  0  0  0  0  0  0  0  0  0
   16.7420   26.1330    6.7380 C   0  0  0  0  0  0  0  0  0  0  0  0
   19.6270   28.2120    5.6990 O   0  0  0  0  0  0  0  0  0  0  0  0
   12.4710   20.5070    9.4390 O   0  0  0  0  0  0  0  0  0  0  0  0
   16.3430   18.2240   10.2830 O   0  0  0  0  0  0  0  0  0  0  0  0
   13.8140   18.6735   10.2058 H   0  0  0  0  0  0  0  0  0  0  0  0
   14.2129   22.7723    8.6149 H   0  0  0  0  0  0  0  0  0  0  0  0
   17.7935   20.3553    9.3671 H   0  0  0  0  0  0  0  0  0  0  0  0
   18.0974   22.5932    8.5458 H   0  0  0  0  0  0  0  0  0  0  0  0
   15.4580   24.0599    7.7657 H   0  0  0  0  0  0  0  0  0  0  0  0
   19.3317   24.0550    7.7930 H   0  0  0  0  0  0  0  0  0  0  0  0
   20.7122   25.9887    6.8260 H   0  0  0  0  0  0  0  0  0  0  0  0
   16.9933   28.1057    5.7443 H   0  0  0  0  0  0  0  0  0  0  0  0
   15.6588   26.1695    6.7154 H   0  0  0  0  0  0  0  0  0  0  0  0
   20.5612   28.0593    5.7794 H   0  0  0  0  0  0  0  0  0  0  0  0
   12.0512   21.1753    9.9679 H   0  0  0  0  0  0  0  0  0  0  0  0
   16.8392   17.8024    9.5913 H   0  0  0  0  0  0  0  0  0  0  0  0
  1  2  2  0  0  0  0
  1  6  1  0  0  0  0
  1 17  1  0  0  0  0
  2  3  1  0  0  0  0
  2 18  1  0  0  0  0
  3  4  2  0  0  0  0
  3 16  1  0  0  0  0
  4  5  1  0  0  0  0
  4 19  1  0  0  0  0
  5  6  2  0  0  0  0
  5  7  1  0  0  0  0
  6 20  1  0  0  0  0
  7  8  2  0  0  0  0
  7 21  1  0  0  0  0
  8  9  1  0  0  0  0
  8 22  1  0  0  0  0
  9 10  2  0  0  0  0
  9 14  1  0  0  0  0
 10 11  1  0  0  0  0
 10 23  1  0  0  0  0
 11 12  2  0  0  0  0
 11 24  1  0  0  0  0
 12 13  1  0  0  0  0
 12 15  1  0  0  0  0
 13 14  2  0  0  0  0
 13 25  1  0  0  0  0
 14 26  1  0  0  0  0
 15 27  1  0  0  0  0
 16 28  1  0  0  0  0
 17 29  1  0  0  0  0
M  END
