4jbl_ligand
 OpenBabel08222323353D

 20 19  0  0  1  0  0  0  0  0999 V2000
  -15.1820   26.3450    0.8650 N   0  3  0  0  0  0  0  0  0  0  0  0
  -15.4060   25.2420    1.8980 C   0  0  2  0  0  0  0  0  0  0  0  0
  -14.1190   24.4750    2.1820 C   0  0  0  0  0  0  0  0  0  0  0  0
  -14.0860   23.2800    2.4460 O   0  5  0  0  0  0  0  0  0  0  0  0
  -16.5440   24.3850    1.4270 C   0  0  0  0  0  0  0  0  0  0  0  0
  -17.7540   25.2960    1.2140 C   0  0  0  0  0  0  0  0  0  0  0  0
  -19.0500   24.5040    0.2350 S   0  0  0  0  0  0  0  0  0  0  0  0
  -18.4210   24.5600   -1.4790 C   0  0  0  0  0  0  0  0  0  0  0  0
  -13.0380   25.0760    2.1260 O   0  0  0  0  0  0  0  0  0  0  0  0
  -16.0491   26.8318    0.6999 H   0  0  0  0  0  0  0  0  0  0  0  0
  -14.8564   25.9368    0.0028 H   0  0  0  0  0  0  0  0  0  0  0  0
  -14.4928   26.9942    1.2107 H   0  0  0  0  0  0  0  0  0  0  0  0
  -15.7137   25.7138    2.8428 H   0  0  0  0  0  0  0  0  0  0  0  0
  -16.7777   23.6227    2.1848 H   0  0  0  0  0  0  0  0  0  0  0  0
  -16.2753   23.8917    0.4813 H   0  0  0  0  0  0  0  0  0  0  0  0
  -17.4234   26.2059    0.6918 H   0  0  0  0  0  0  0  0  0  0  0  0
  -18.1691   25.5671    2.1959 H   0  0  0  0  0  0  0  0  0  0  0  0
  -19.1540   24.0939   -2.1539 H   0  0  0  0  0  0  0  0  0  0  0  0
  -17.4685   24.0130   -1.5381 H   0  0  0  0  0  0  0  0  0  0  0  0
  -18.2619   25.6068   -1.7772 H   0  0  0  0  0  0  0  0  0  0  0  0
  1  2  1  0  0  0  0
  1 10  1  0  0  0  0
  1 11  1  0  0  0  0
  1 12  1  0  0  0  0
  2  3  1  0  0  0  0
  2  5  1  0  0  0  0
  2 13  1  1  0  0  0
  3  4  1  0  0  0  0
  3  9  2  0  0  0  0
  5  6  1  0  0  0  0
  5 14  1  0  0  0  0
  5 15  1  0  0  0  0
  6  7  1  0  0  0  0
  6 16  1  0  0  0  0
  6 17  1  0  0  0  0
  7  8  1  0  0  0  0
  8 18  1  0  0  0  0
  8 19  1  0  0  0  0
  8 20  1  0  0  0  0
M  CHG  2   1   1   4  -1
M  END
