4jbp_ligand
 OpenBabel08222323353D

 81 86  0  0  1  0  0  0  0  0999 V2000
    1.5620   38.5130    2.2140 C   0  0  0  0  0  0  0  0  0  0  0  0
    2.7080   38.8140    1.2540 C   0  0  0  0  0  0  0  0  0  0  0  0
    2.2220   39.5470   -0.0120 C   0  0  1  0  0  0  0  0  0  0  0  0
    3.2860   39.6140   -0.9720 O   0  0  0  0  0  0  0  0  0  0  0  0
    1.0180   38.8170   -0.6280 C   0  0  0  0  0  0  0  0  0  0  0  0
   -0.0520   38.5450    0.4350 C   0  0  0  0  0  0  0  0  0  0  0  0
    0.5300   37.7310    1.5160 N   0  3  2  0  0  0  0  0  0  0  0  0
   -0.5220   37.3180    2.4510 C   0  0  0  0  0  0  0  0  0  0  0  0
    0.0520   36.3780    3.5020 C   0  0  0  0  0  0  0  0  0  0  0  0
    0.8320   35.3130    2.8700 O   0  0  0  0  0  0  0  0  0  0  0  0
    1.4900   34.5080    3.7430 C   0  0  0  0  0  0  0  0  0  0  0  0
    2.3320   33.5130    3.2510 C   0  0  0  0  0  0  0  0  0  0  0  0
    3.0100   32.6740    4.1330 C   0  0  0  0  0  0  0  0  0  0  0  0
    1.3180   34.6620    5.1200 C   0  0  0  0  0  0  0  0  0  0  0  0
    2.0080   33.8320    5.9950 C   0  0  0  0  0  0  0  0  0  0  0  0
    2.8490   32.8260    5.5140 C   0  0  0  0  0  0  0  0  0  0  0  0
    3.5070   32.0080    6.4380 C   0  0  0  0  0  0  0  0  0  0  0  0
    3.2800   32.2240    7.7600 O   0  0  0  0  0  0  0  0  0  0  0  0
    4.3990   31.0020    6.2970 C   0  0  0  0  0  0  0  0  0  0  0  0
    4.7320   30.5710    7.5300 C   0  0  0  0  0  0  0  0  0  0  0  0
    4.0220   31.3440    8.4570 C   0  0  0  0  0  0  0  0  0  0  0  0
    4.1360   31.1470    9.7720 N   0  0  0  0  0  0  0  0  0  0  0  0
    4.9400   30.1920   10.2170 C   0  0  0  0  0  0  0  0  0  0  0  0
    5.6390   29.4330    9.3820 N   0  0  0  0  0  0  0  0  0  0  0  0
    5.5790   29.5860    8.0440 C   0  0  0  0  0  0  0  0  0  0  0  0
    6.3330   28.7870    7.2760 N   0  0  0  0  0  0  0  0  0  0  0  0
    7.1850   27.7220    7.8720 C   0  0  0  0  0  0  0  0  0  0  0  0
    8.5440   28.2650    8.3840 C   0  0  0  0  0  0  0  0  0  0  0  0
    9.4290   27.1050    8.8600 C   0  0  0  0  0  0  0  0  0  0  0  0
    9.2820   26.6070   10.1490 C   0  0  0  0  0  0  0  0  0  0  0  0
   10.0590   25.5510   10.6120 C   0  0  0  0  0  0  0  0  0  0  0  0
   10.3720   26.5270    8.0180 C   0  0  0  0  0  0  0  0  0  0  0  0
   11.1420   25.4590    8.4760 C   0  0  0  0  0  0  0  0  0  0  0  0
   10.9880   24.9550    9.7740 C   0  0  0  0  0  0  0  0  0  0  0  0
   11.7440   23.9450   10.2470 N   0  0  0  0  0  0  0  0  0  0  0  0
   11.9340   22.7720    9.6150 C   0  0  0  0  0  0  0  0  0  0  0  0
   11.3930   22.5110    8.5460 O   0  0  0  0  0  0  0  0  0  0  0  0
   12.7550   21.9000   10.2220 N   0  0  0  0  0  0  0  0  0  0  0  0
   13.0860   20.6890    9.7520 C   0  0  0  0  0  0  0  0  0  0  0  0
   14.0170   19.9400   10.4750 C   0  0  0  0  0  0  0  0  0  0  0  0
   14.4170   18.6750   10.0450 C   0  0  0  0  0  0  0  0  0  0  0  0
   13.8870   18.1470    8.8710 C   0  0  0  0  0  0  0  0  0  0  0  0
   12.9570   18.8880    8.1420 C   0  0  0  0  0  0  0  0  0  0  0  0
   12.5600   20.1540    8.5780 C   0  0  0  0  0  0  0  0  0  0  0  0
    1.1264   39.4573    2.5726 H   0  0  0  0  0  0  0  0  0  0  0  0
    1.9426   37.9363    3.0699 H   0  0  0  0  0  0  0  0  0  0  0  0
    3.1805   37.8663    0.9565 H   0  0  0  0  0  0  0  0  0  0  0  0
    3.4463   39.4461    1.7691 H   0  0  0  0  0  0  0  0  0  0  0  0
    1.9189   40.5684    0.2614 H   0  0  0  0  0  0  0  0  0  0  0  0
    2.9812   40.0664   -1.7498 H   0  0  0  0  0  0  0  0  0  0  0  0
    1.3549   37.8605   -1.0542 H   0  0  0  0  0  0  0  0  0  0  0  0
    0.5858   39.4412   -1.4240 H   0  0  0  0  0  0  0  0  0  0  0  0
   -0.8932   38.0024   -0.0210 H   0  0  0  0  0  0  0  0  0  0  0  0
   -0.4115   39.4995    0.8469 H   0  0  0  0  0  0  0  0  0  0  0  0
    0.9547   36.9081    1.1180 H   0  0  0  0  0  0  0  0  0  0  0  0
   -1.3190   36.8008    1.8967 H   0  0  0  0  0  0  0  0  0  0  0  0
   -0.9380   38.2075    2.9467 H   0  0  0  0  0  0  0  0  0  0  0  0
   -0.7729   35.9302    4.0756 H   0  0  0  0  0  0  0  0  0  0  0  0
    0.7030   36.9488    4.1806 H   0  0  0  0  0  0  0  0  0  0  0  0
    2.4597   33.3915    2.1814 H   0  0  0  0  0  0  0  0  0  0  0  0
    3.6646   31.9007    3.7475 H   0  0  0  0  0  0  0  0  0  0  0  0
    0.6501   35.4245    5.5041 H   0  0  0  0  0  0  0  0  0  0  0  0
    1.8921   33.9669    7.0643 H   0  0  0  0  0  0  0  0  0  0  0  0
    4.7804   30.6098    5.3554 H   0  0  0  0  0  0  0  0  0  0  0  0
    5.0286   30.0274   11.2848 H   0  0  0  0  0  0  0  0  0  0  0  0
    6.3226   28.9125    6.2537 H   0  0  0  0  0  0  0  0  0  0  0  0
    7.3773   26.9550    7.1073 H   0  0  0  0  0  0  0  0  0  0  0  0
    6.6450   27.2700    8.7170 H   0  0  0  0  0  0  0  0  0  0  0  0
    8.3677   28.9557    9.2217 H   0  0  0  0  0  0  0  0  0  0  0  0
    9.0527   28.8000    7.5685 H   0  0  0  0  0  0  0  0  0  0  0  0
    8.5452   27.0517   10.8081 H   0  0  0  0  0  0  0  0  0  0  0  0
    9.9381   25.1939   11.6283 H   0  0  0  0  0  0  0  0  0  0  0  0
   10.5078   26.9046    7.0110 H   0  0  0  0  0  0  0  0  0  0  0  0
   11.8742   25.0097    7.8149 H   0  0  0  0  0  0  0  0  0  0  0  0
   12.1956   24.0761   11.1295 H   0  0  0  0  0  0  0  0  0  0  0  0
   13.1523   22.1768   11.0969 H   0  0  0  0  0  0  0  0  0  0  0  0
   14.4363   20.3493   11.3870 H   0  0  0  0  0  0  0  0  0  0  0  0
   15.1369   18.1059   10.6220 H   0  0  0  0  0  0  0  0  0  0  0  0
   14.1950   17.1667    8.5258 H   0  0  0  0  0  0  0  0  0  0  0  0
   12.5390   18.4780    7.2297 H   0  0  0  0  0  0  0  0  0  0  0  0
   11.8399   20.7226    8.0008 H   0  0  0  0  0  0  0  0  0  0  0  0
  1  2  1  0  0  0  0
  1  7  1  0  0  0  0
  1 45  1  0  0  0  0
  1 46  1  0  0  0  0
  2  3  1  0  0  0  0
  2 47  1  0  0  0  0
  2 48  1  0  0  0  0
  3  4  1  0  0  0  0
  3  5  1  0  0  0  0
  3 49  1  1  0  0  0
  4 50  1  0  0  0  0
  5  6  1  0  0  0  0
  5 51  1  0  0  0  0
  5 52  1  0  0  0  0
  6  7  1  0  0  0  0
  6 53  1  0  0  0  0
  6 54  1  0  0  0  0
  7  8  1  0  0  0  0
  7 55  1  6  0  0  0
  8  9  1  0  0  0  0
  8 56  1  0  0  0  0
  8 57  1  0  0  0  0
  9 10  1  0  0  0  0
  9 58  1  0  0  0  0
  9 59  1  0  0  0  0
 10 11  1  0  0  0  0
 11 12  2  0  0  0  0
 11 14  1  0  0  0  0
 12 13  1  0  0  0  0
 12 60  1  0  0  0  0
 13 16  2  0  0  0  0
 13 61  1  0  0  0  0
 14 15  2  0  0  0  0
 14 62  1  0  0  0  0
 15 16  1  0  0  0  0
 15 63  1  0  0  0  0
 16 17  1  0  0  0  0
 17 18  1  0  0  0  0
 17 19  2  0  0  0  0
 18 21  1  0  0  0  0
 19 20  1  0  0  0  0
 19 64  1  0  0  0  0
 20 21  2  0  0  0  0
 20 25  1  0  0  0  0
 21 22  1  0  0  0  0
 22 23  2  0  0  0  0
 23 24  1  0  0  0  0
 23 65  1  0  0  0  0
 24 25  2  0  0  0  0
 25 26  1  0  0  0  0
 26 27  1  0  0  0  0
 26 66  1  0  0  0  0
 27 28  1  0  0  0  0
 27 67  1  0  0  0  0
 27 68  1  0  0  0  0
 28 29  1  0  0  0  0
 28 69  1  0  0  0  0
 28 70  1  0  0  0  0
 29 30  2  0  0  0  0
 29 32  1  0  0  0  0
 30 31  1  0  0  0  0
 30 71  1  0  0  0  0
 31 34  2  0  0  0  0
 31 72  1  0  0  0  0
 32 33  2  0  0  0  0
 32 73  1  0  0  0  0
 33 34  1  0  0  0  0
 33 74  1  0  0  0  0
 34 35  1  0  0  0  0
 35 36  1  0  0  0  0
 35 75  1  0  0  0  0
 36 37  2  0  0  0  0
 36 38  1  0  0  0  0
 38 39  1  0  0  0  0
 38 76  1  0  0  0  0
 39 40  2  0  0  0  0
 39 44  1  0  0  0  0
 40 41  1  0  0  0  0
 40 77  1  0  0  0  0
 41 42  2  0  0  0  0
 41 78  1  0  0  0  0
 42 43  1  0  0  0  0
 42 79  1  0  0  0  0
 43 44  2  0  0  0  0
 43 80  1  0  0  0  0
 44 81  1  0  0  0  0
M  CHG  1   7   1
M  END
