4jfl_ligand
 OpenBabel08222323353D

 63 67  0  0  1  0  0  0  0  0999 V2000
   11.2910  -14.2790  -17.5280 C   0  0  0  0  0  0  0  0  0  0  0  0
    9.1300  -13.8320  -18.0610 N   0  0  0  0  0  0  0  0  0  0  0  0
   12.4150  -13.8470  -17.2910 O   0  0  0  0  0  0  0  0  0  0  0  0
   10.1720  -13.5930  -17.0540 C   0  0  1  0  0  0  0  0  0  0  0  0
    9.7810  -14.0850  -15.6840 C   0  0  0  0  0  0  0  0  0  0  0  0
   18.9910  -13.2400  -17.8350 C   0  0  0  0  0  0  0  0  0  0  0  0
   16.9250  -10.4000  -20.9670 C   0  0  0  0  0  0  0  0  0  0  0  0
    4.2210  -14.1070  -24.6980 O   0  0  0  0  0  0  0  0  0  0  0  0
    8.2450  -11.3690  -17.6210 O   0  0  0  0  0  0  0  0  0  0  0  0
    6.6000  -13.2540  -17.2770 O   0  0  0  0  0  0  0  0  0  0  0  0
   15.3920  -14.6560  -19.2740 C   0  0  0  0  0  0  0  0  0  0  0  0
   16.6650  -14.2280  -18.8950 C   0  0  0  0  0  0  0  0  0  0  0  0
    7.9510  -11.9860  -20.8030 C   0  0  0  0  0  0  0  0  0  0  0  0
    7.4960  -12.0560  -22.1140 C   0  0  0  0  0  0  0  0  0  0  0  0
   14.8440  -12.4160  -19.9010 C   0  0  0  0  0  0  0  0  0  0  0  0
    6.2390  -13.4870  -20.2330 C   0  0  0  0  0  0  0  0  0  0  0  0
    9.6740  -15.5510  -15.7420 C   0  0  0  0  0  0  0  0  0  0  0  0
   12.9240  -15.5260  -20.2050 C   0  0  0  0  0  0  0  0  0  0  0  0
    8.4900  -15.8060  -16.6620 C   0  0  0  0  0  0  0  0  0  0  0  0
   12.4650  -15.9900  -18.8010 C   0  0  0  0  0  0  0  0  0  0  0  0
    9.9190  -16.0130  -18.7020 C   0  0  0  0  0  0  0  0  0  0  0  0
    5.9140  -12.9740  -23.6810 N   0  0  0  0  0  0  0  0  0  0  0  0
   18.2380  -12.3690  -18.6780 O   0  0  0  0  0  0  0  0  0  0  0  0
   16.5080  -10.6900  -19.6280 O   0  0  0  0  0  0  0  0  0  0  0  0
   13.2020  -14.1340  -20.1590 O   0  0  0  0  0  0  0  0  0  0  0  0
    4.5940  -14.3600  -22.2340 S   0  0  0  0  0  0  0  0  0  0  0  0
   14.4670  -13.7520  -19.7820 C   0  0  0  0  0  0  0  0  0  0  0  0
    7.3000  -12.7140  -19.8250 C   0  0  0  0  0  0  0  0  0  0  0  0
   17.0210  -12.8880  -19.0190 C   0  0  0  0  0  0  0  0  0  0  0  0
   16.1070  -11.9880  -19.5260 C   0  0  0  0  0  0  0  0  0  0  0  0
    4.8720  -13.8080  -23.6980 C   0  0  0  0  0  0  0  0  0  0  0  0
    6.4550  -12.8150  -22.4540 C   0  0  0  0  0  0  0  0  0  0  0  0
    5.8330  -13.5300  -21.5030 C   0  0  0  0  0  0  0  0  0  0  0  0
    8.7700  -15.2490  -18.0580 C   0  0  2  0  0  0  0  0  0  0  0  0
   11.1940  -15.3610  -18.3370 N   0  0  0  0  0  0  0  0  0  0  0  0
    7.7840  -12.7370  -18.0890 S   0  0  0  0  0  0  0  0  0  0  0  0
   10.3873  -12.5161  -16.9908 H   0  0  0  0  0  0  0  0  0  0  0  0
    8.8128  -13.6511  -15.3936 H   0  0  0  0  0  0  0  0  0  0  0  0
   10.5476  -13.7953  -14.9502 H   0  0  0  0  0  0  0  0  0  0  0  0
   19.9570  -12.7722  -17.5939 H   0  0  0  0  0  0  0  0  0  0  0  0
   19.1650  -14.1936  -18.3550 H   0  0  0  0  0  0  0  0  0  0  0  0
   18.4316  -13.4255  -16.9062 H   0  0  0  0  0  0  0  0  0  0  0  0
   17.2451   -9.3496  -21.0319 H   0  0  0  0  0  0  0  0  0  0  0  0
   16.0860  -10.5709  -21.6575 H   0  0  0  0  0  0  0  0  0  0  0  0
   17.7642  -11.0566  -21.2400 H   0  0  0  0  0  0  0  0  0  0  0  0
   15.1228  -15.7010  -19.1714 H   0  0  0  0  0  0  0  0  0  0  0  0
   17.3798  -14.9421  -18.5023 H   0  0  0  0  0  0  0  0  0  0  0  0
    8.8054  -11.3685  -20.5506 H   0  0  0  0  0  0  0  0  0  0  0  0
    8.0009  -11.4783  -22.8798 H   0  0  0  0  0  0  0  0  0  0  0  0
   14.1348  -11.6971  -20.2949 H   0  0  0  0  0  0  0  0  0  0  0  0
    5.7132  -14.0832  -19.4960 H   0  0  0  0  0  0  0  0  0  0  0  0
    9.4866  -15.9678  -14.7414 H   0  0  0  0  0  0  0  0  0  0  0  0
   10.5920  -15.9925  -16.1571 H   0  0  0  0  0  0  0  0  0  0  0  0
   12.1265  -15.7196  -20.9374 H   0  0  0  0  0  0  0  0  0  0  0  0
   13.8314  -16.0747  -20.4973 H   0  0  0  0  0  0  0  0  0  0  0  0
    7.5971  -15.3147  -16.2482 H   0  0  0  0  0  0  0  0  0  0  0  0
    8.3128  -16.8893  -16.7329 H   0  0  0  0  0  0  0  0  0  0  0  0
   13.2569  -15.7417  -18.0791 H   0  0  0  0  0  0  0  0  0  0  0  0
   12.3214  -17.0803  -18.8273 H   0  0  0  0  0  0  0  0  0  0  0  0
    9.8004  -16.0049  -19.7955 H   0  0  0  0  0  0  0  0  0  0  0  0
    9.9194  -17.0520  -18.3409 H   0  0  0  0  0  0  0  0  0  0  0  0
    6.2603  -12.5119  -24.4974 H   0  0  0  0  0  0  0  0  0  0  0  0
    7.8621  -15.3801  -18.6651 H   0  0  0  0  0  0  0  0  0  0  0  0
  1  3  2  0  0  0  0
  1 35  1  0  0  0  0
  2  4  1  0  0  0  0
  2 34  1  0  0  0  0
  4  1  1  0  0  0  0
  4  5  1  0  0  0  0
  4 37  1  1  0  0  0
  5 17  1  0  0  0  0
  5 38  1  0  0  0  0
  5 39  1  0  0  0  0
  6 40  1  0  0  0  0
  6 41  1  0  0  0  0
  6 42  1  0  0  0  0
  7 43  1  0  0  0  0
  7 44  1  0  0  0  0
  7 45  1  0  0  0  0
 11 12  2  0  0  0  0
 11 46  1  0  0  0  0
 12 29  1  0  0  0  0
 12 47  1  0  0  0  0
 13 14  2  0  0  0  0
 13 48  1  0  0  0  0
 14 32  1  0  0  0  0
 14 49  1  0  0  0  0
 15 30  1  0  0  0  0
 15 50  1  0  0  0  0
 16 33  1  0  0  0  0
 16 51  1  0  0  0  0
 17 52  1  0  0  0  0
 17 53  1  0  0  0  0
 18 25  1  0  0  0  0
 18 54  1  0  0  0  0
 18 55  1  0  0  0  0
 19 17  1  0  0  0  0
 19 56  1  0  0  0  0
 19 57  1  0  0  0  0
 20 18  1  0  0  0  0
 20 58  1  0  0  0  0
 20 59  1  0  0  0  0
 21 35  1  0  0  0  0
 21 60  1  0  0  0  0
 21 61  1  0  0  0  0
 22 62  1  0  0  0  0
 23  6  1  0  0  0  0
 24  7  1  0  0  0  0
 25 27  1  0  0  0  0
 26 31  1  0  0  0  0
 27 11  1  0  0  0  0
 27 15  2  0  0  0  0
 28 13  1  0  0  0  0
 28 16  2  0  0  0  0
 28 36  1  0  0  0  0
 29 23  1  0  0  0  0
 29 30  2  0  0  0  0
 30 24  1  0  0  0  0
 31  8  2  0  0  0  0
 31 22  1  0  0  0  0
 32 22  1  0  0  0  0
 32 33  2  0  0  0  0
 33 26  1  0  0  0  0
 34 19  1  0  0  0  0
 34 21  1  0  0  0  0
 34 63  1  6  0  0  0
 35 20  1  0  0  0  0
 36  2  1  0  0  0  0
 36  9  2  0  0  0  0
 36 10  2  0  0  0  0
M  END
