4jfz_ligand
 OpenBabel08222323353D

144145  0  0  1  0  0  0  0  0999 V2000
   -4.4650   39.0300    4.7560 N   0  3  0  0  0  0  0  0  0  0  0  0
   -4.4750   37.5430    4.5860 C   0  0  2  0  0  0  0  0  0  0  0  0
   -3.3490   37.0670    3.6690 C   0  0  0  0  0  0  0  0  0  0  0  0
   -3.2710   37.4850    2.5220 O   0  0  0  0  0  0  0  0  0  0  0  0
   -5.8220   37.0740    4.0130 C   0  0  0  0  0  0  0  0  0  0  0  0
   -5.8530   35.5840    3.6610 C   0  0  0  0  0  0  0  0  0  0  0  0
   -7.1700   35.1630    2.9950 C   0  0  0  0  0  0  0  0  0  0  0  0
   -7.3680   35.8160    1.6190 C   0  0  0  0  0  0  0  0  0  0  0  0
   -6.2160   35.6180    0.6710 N   0  3  0  0  0  0  0  0  0  0  0  0
   -2.4840   36.1880    4.1690 N   0  0  0  0  0  0  0  0  0  0  0  0
   -1.5100   35.5410    3.3040 C   0  0  0  0  0  0  0  0  0  0  0  0
   -0.6970   36.5650    2.5340 C   0  0  0  0  0  0  0  0  0  0  0  0
   -0.5430   36.4730    1.3120 O   0  0  0  0  0  0  0  0  0  0  0  0
   -0.1820   37.5520    3.2580 N   0  0  0  0  0  0  0  0  0  0  0  0
    0.5170   38.6570    2.6220 C   0  0  2  0  0  0  0  0  0  0  0  0
    1.9700   38.3350    2.4240 C   0  0  0  0  0  0  0  0  0  0  0  0
    2.7980   39.2570    2.4710 O   0  0  0  0  0  0  0  0  0  0  0  0
    0.3900   39.9650    3.4500 C   0  0  0  0  0  0  0  0  0  0  0  0
    1.0450   39.8760    4.8310 C   0  0  0  0  0  0  0  0  0  0  0  0
    1.3620   38.7970    5.3170 O   0  0  0  0  0  0  0  0  0  0  0  0
    1.2400   41.0270    5.4660 N   0  0  0  0  0  0  0  0  0  0  0  0
    2.3030   37.0500    2.2030 N   0  0  0  0  0  0  0  0  0  0  0  0
    3.7120   36.7130    2.0700 C   0  0  2  0  0  0  0  0  0  0  0  0
    4.0720   35.4980    1.2090 C   0  0  0  0  0  0  0  0  0  0  0  0
    3.3210   34.5400    1.0380 O   0  0  0  0  0  0  0  0  0  0  0  0
    4.3830   36.6340    3.4560 C   0  0  0  0  0  0  0  0  0  0  0  0
    4.0450   35.4170    4.2810 C   0  0  0  0  0  0  0  0  0  0  0  0
    4.7250   34.2280    4.0880 C   0  0  0  0  0  0  0  0  0  0  0  0
    3.0800   35.4720    5.2810 C   0  0  0  0  0  0  0  0  0  0  0  0
    4.4450   33.1110    4.8470 C   0  0  0  0  0  0  0  0  0  0  0  0
    2.7920   34.3700    6.0620 C   0  0  0  0  0  0  0  0  0  0  0  0
    3.4710   33.1940    5.8330 C   0  0  0  0  0  0  0  0  0  0  0  0
    3.2190   32.1070    6.6060 O   0  0  0  0  0  0  0  0  0  0  0  0
    5.2840   35.5720    0.6840 N   0  0  0  0  0  0  0  0  0  0  0  0
    5.8140   34.5680   -0.2090 C   0  0  2  0  0  0  0  0  0  0  0  0
    6.9110   33.7440    0.4800 C   0  0  0  0  0  0  0  0  0  0  0  0
    7.8370   34.2940    1.0810 O   0  0  0  0  0  0  0  0  0  0  0  0
    6.3790   35.2770   -1.4480 C   0  0  0  0  0  0  0  0  0  0  0  0
    7.2670   34.3400   -2.2900 C   0  0  0  0  0  0  0  0  0  0  0  0
    5.2170   35.8420   -2.2970 C   0  0  0  0  0  0  0  0  0  0  0  0
    6.8000   32.4220    0.3850 N   0  0  0  0  0  0  0  0  0  0  0  0
    7.8510   31.5520    0.8910 C   0  0  2  0  0  0  0  0  0  0  0  0
    8.6740   30.9260   -0.2390 C   0  0  0  0  0  0  0  0  0  0  0  0
    9.9070   30.8510   -0.1740 O   0  0  0  0  0  0  0  0  0  0  0  0
    7.2300   30.4440    1.7710 C   0  0  0  0  0  0  0  0  0  0  0  0
    8.2770   29.4450    2.2460 C   0  0  0  0  0  0  0  0  0  0  0  0
    6.5410   31.0840    2.9850 C   0  0  0  0  0  0  0  0  0  0  0  0
    7.9850   30.4450   -1.2680 N   0  0  0  0  0  0  0  0  0  0  0  0
    8.6400   29.8690   -2.4300 C   0  0  2  0  0  0  0  0  0  0  0  0
    8.6000   30.9030   -3.5360 C   0  0  0  0  0  0  0  0  0  0  0  0
    7.5360   31.2540   -4.0190 O   0  0  0  0  0  0  0  0  0  0  0  0
    7.9250   28.5700   -2.8950 C   0  0  2  0  0  0  0  0  0  0  0  0
    8.0590   27.5730   -1.8790 O   0  0  0  0  0  0  0  0  0  0  0  0
    8.5400   28.0170   -4.2080 C   0  0  0  0  0  0  0  0  0  0  0  0
    9.7700   31.3940   -3.9270 N   0  0  0  0  0  0  0  0  0  0  0  0
    9.8700   32.4090   -4.9330 C   0  0  1  0  0  0  0  0  0  0  0  0
   11.3020   32.7660   -5.1970 C   0  0  0  0  0  0  0  0  0  0  0  0
   12.0400   33.3410   -4.1690 O   0  0  0  0  0  0  0  0  0  0  0  0
    9.2230   31.9560   -6.2110 C   0  0  0  0  0  0  0  0  0  0  0  0
    9.2390   30.7770   -6.5780 O   0  0  0  0  0  0  0  0  0  0  0  0
   12.4920   34.8350   -4.3010 P   0  0  0  0  0  0  0  0  0  0  0  0
   13.3190   35.1950   -3.0830 O   0  0  0  0  0  1  0  0  0  0  0  0
   11.1970   35.6110   -4.4030 O   0  0  0  0  0  1  0  0  0  0  0  0
   13.2560   34.8720   -5.5940 O   0  0  0  0  0  0  0  0  0  0  0  0
    8.6120   32.9080   -6.8980 N   0  0  0  0  0  0  0  0  0  0  0  0
    7.9580   32.6140   -8.1850 C   0  0  2  0  0  0  0  0  0  0  0  0
    8.2000   33.7490   -9.1740 C   0  0  0  0  0  0  0  0  0  0  0  0
    9.1140   34.5630   -8.9980 O   0  5  0  0  0  0  0  0  0  0  0  0
    6.4560   32.3830   -7.9920 C   0  0  0  0  0  0  0  0  0  0  0  0
    5.7620   33.5050   -7.2750 C   0  0  0  0  0  0  0  0  0  0  0  0
    5.5940   33.5220   -5.9060 N   0  0  0  0  0  0  0  0  0  0  0  0
    5.2060   34.6480   -7.7410 C   0  0  0  0  0  0  0  0  0  0  0  0
    4.9550   34.6310   -5.5610 C   0  0  0  0  0  0  0  0  0  0  0  0
    4.7120   35.3320   -6.6520 N   0  0  0  0  0  0  0  0  0  0  0  0
    7.4930   33.8740  -10.1770 O   0  0  0  0  0  0  0  0  0  0  0  0
   -5.2199   39.3036    5.3654 H   0  0  0  0  0  0  0  0  0  0  0  0
   -4.5816   39.4717    3.8575 H   0  0  0  0  0  0  0  0  0  0  0  0
   -3.5868   39.3162    5.1597 H   0  0  0  0  0  0  0  0  0  0  0  0
   -4.3344   37.0844    5.5759 H   0  0  0  0  0  0  0  0  0  0  0  0
   -6.0317   37.6513    3.1005 H   0  0  0  0  0  0  0  0  0  0  0  0
   -6.6052   37.2712    4.7598 H   0  0  0  0  0  0  0  0  0  0  0  0
   -5.7230   35.0009    4.5846 H   0  0  0  0  0  0  0  0  0  0  0  0
   -5.0242   35.3675    2.9709 H   0  0  0  0  0  0  0  0  0  0  0  0
   -8.0051   35.4562    3.6481 H   0  0  0  0  0  0  0  0  0  0  0  0
   -7.1685   34.0701    2.8699 H   0  0  0  0  0  0  0  0  0  0  0  0
   -7.5110   36.8965    1.7672 H   0  0  0  0  0  0  0  0  0  0  0  0
   -8.2704   35.3863    1.1598 H   0  0  0  0  0  0  0  0  0  0  0  0
   -6.4199   36.0729   -0.2051 H   0  0  0  0  0  0  0  0  0  0  0  0
   -6.0763   34.6323    0.5132 H   0  0  0  0  0  0  0  0  0  0  0  0
   -5.3803   36.0163    1.0699 H   0  0  0  0  0  0  0  0  0  0  0  0
   -2.5038   35.9711    5.1450 H   0  0  0  0  0  0  0  0  0  0  0  0
   -2.0386   34.8919    2.5904 H   0  0  0  0  0  0  0  0  0  0  0  0
   -0.8310   34.9327    3.9196 H   0  0  0  0  0  0  0  0  0  0  0  0
   -0.2762   37.5350    4.2534 H   0  0  0  0  0  0  0  0  0  0  0  0
    0.0602   38.8256    1.6357 H   0  0  0  0  0  0  0  0  0  0  0  0
   -0.6782   40.1902    3.5846 H   0  0  0  0  0  0  0  0  0  0  0  0
    0.8689   40.7809    2.8888 H   0  0  0  0  0  0  0  0  0  0  0  0
    1.6639   41.0328    6.3717 H   0  0  0  0  0  0  0  0  0  0  0  0
    0.9629   41.8873    5.0381 H   0  0  0  0  0  0  0  0  0  0  0  0
    1.5988   36.3436    2.1319 H   0  0  0  0  0  0  0  0  0  0  0  0
    4.1655   37.5722    1.5541 H   0  0  0  0  0  0  0  0  0  0  0  0
    4.0815   37.5238    4.0281 H   0  0  0  0  0  0  0  0  0  0  0  0
    5.4725   36.6471    3.3047 H   0  0  0  0  0  0  0  0  0  0  0  0
    5.4932   34.1731    3.3251 H   0  0  0  0  0  0  0  0  0  0  0  0
    2.5432   36.3983    5.4508 H   0  0  0  0  0  0  0  0  0  0  0  0
    4.9773   32.1823    4.6763 H   0  0  0  0  0  0  0  0  0  0  0  0
    2.0430   34.4298    6.8433 H   0  0  0  0  0  0  0  0  0  0  0  0
    2.3039   31.8660    6.5229 H   0  0  0  0  0  0  0  0  0  0  0  0
    5.8583   36.3573    0.9155 H   0  0  0  0  0  0  0  0  0  0  0  0
    5.0024   33.8915   -0.5152 H   0  0  0  0  0  0  0  0  0  0  0  0
    7.0010   36.1181   -1.1081 H   0  0  0  0  0  0  0  0  0  0  0  0
    7.6499   34.8859   -3.1649 H   0  0  0  0  0  0  0  0  0  0  0  0
    6.6736   33.4773   -2.6270 H   0  0  0  0  0  0  0  0  0  0  0  0
    8.1114   33.9881   -1.6791 H   0  0  0  0  0  0  0  0  0  0  0  0
    4.5984   36.5065   -1.6758 H   0  0  0  0  0  0  0  0  0  0  0  0
    4.6003   35.0123   -2.6729 H   0  0  0  0  0  0  0  0  0  0  0  0
    5.6255   36.4093   -3.1463 H   0  0  0  0  0  0  0  0  0  0  0  0
    5.9868   32.0222   -0.0380 H   0  0  0  0  0  0  0  0  0  0  0  0
    8.5277   32.1563    1.5130 H   0  0  0  0  0  0  0  0  0  0  0  0
    6.4781   29.9050    1.1759 H   0  0  0  0  0  0  0  0  0  0  0  0
    7.7947   28.6758    2.8671 H   0  0  0  0  0  0  0  0  0  0  0  0
    9.0412   29.9688    2.8389 H   0  0  0  0  0  0  0  0  0  0  0  0
    8.7512   28.9688    1.3751 H   0  0  0  0  0  0  0  0  0  0  0  0
    5.7854   31.8050    2.6398 H   0  0  0  0  0  0  0  0  0  0  0  0
    7.2902   31.6042    3.5998 H   0  0  0  0  0  0  0  0  0  0  0  0
    6.0538   30.3013    3.5850 H   0  0  0  0  0  0  0  0  0  0  0  0
    6.9860   30.4804   -1.2420 H   0  0  0  0  0  0  0  0  0  0  0  0
    9.6850   29.6322   -2.1810 H   0  0  0  0  0  0  0  0  0  0  0  0
    6.8596   28.7879   -3.0604 H   0  0  0  0  0  0  0  0  0  0  0  0
    7.6621   27.8866   -1.0748 H   0  0  0  0  0  0  0  0  0  0  0  0
    8.0089   27.1003   -4.5040 H   0  0  0  0  0  0  0  0  0  0  0  0
    9.6039   27.7885   -4.0469 H   0  0  0  0  0  0  0  0  0  0  0  0
    8.4431   28.7701   -5.0039 H   0  0  0  0  0  0  0  0  0  0  0  0
   10.6072   31.0445   -3.5063 H   0  0  0  0  0  0  0  0  0  0  0  0
    9.3459   33.3064   -4.5724 H   0  0  0  0  0  0  0  0  0  0  0  0
   11.3109   33.4738   -6.0390 H   0  0  0  0  0  0  0  0  0  0  0  0
   11.8192   31.8406   -5.4904 H   0  0  0  0  0  0  0  0  0  0  0  0
    8.5940   33.8408   -6.5381 H   0  0  0  0  0  0  0  0  0  0  0  0
    8.3996   31.6943   -8.5961 H   0  0  0  0  0  0  0  0  0  0  0  0
    6.3182   31.4602   -7.4093 H   0  0  0  0  0  0  0  0  0  0  0  0
    5.9924   32.2640   -8.9824 H   0  0  0  0  0  0  0  0  0  0  0  0
    5.1582   34.9668   -8.7812 H   0  0  0  0  0  0  0  0  0  0  0  0
    4.6772   34.9157   -4.5472 H   0  0  0  0  0  0  0  0  0  0  0  0
    4.2313   36.2424   -6.6843 H   0  0  0  0  0  0  0  0  0  0  0  0
  1  2  1  0  0  0  0
  1 76  1  0  0  0  0
  1 77  1  0  0  0  0
  1 78  1  0  0  0  0
  2  3  1  0  0  0  0
  2  5  1  0  0  0  0
  2 79  1  1  0  0  0
  3  4  2  0  0  0  0
  3 10  1  0  0  0  0
  5  6  1  0  0  0  0
  5 80  1  0  0  0  0
  5 81  1  0  0  0  0
  6  7  1  0  0  0  0
  6 82  1  0  0  0  0
  6 83  1  0  0  0  0
  7  8  1  0  0  0  0
  7 84  1  0  0  0  0
  7 85  1  0  0  0  0
  8  9  1  0  0  0  0
  8 86  1  0  0  0  0
  8 87  1  0  0  0  0
  9 88  1  0  0  0  0
  9 89  1  0  0  0  0
  9 90  1  0  0  0  0
 10 11  1  0  0  0  0
 10 91  1  0  0  0  0
 11 12  1  0  0  0  0
 11 92  1  0  0  0  0
 11 93  1  0  0  0  0
 12 13  2  0  0  0  0
 12 14  1  0  0  0  0
 14 15  1  0  0  0  0
 14 94  1  0  0  0  0
 15 16  1  0  0  0  0
 15 18  1  0  0  0  0
 15 95  1  6  0  0  0
 16 17  2  0  0  0  0
 16 22  1  0  0  0  0
 18 19  1  0  0  0  0
 18 96  1  0  0  0  0
 18 97  1  0  0  0  0
 19 20  2  0  0  0  0
 19 21  1  0  0  0  0
 21 98  1  0  0  0  0
 21 99  1  0  0  0  0
 22 23  1  0  0  0  0
 22100  1  0  0  0  0
 23 24  1  0  0  0  0
 23 26  1  0  0  0  0
 23101  1  6  0  0  0
 24 25  2  0  0  0  0
 24 34  1  0  0  0  0
 26 27  1  0  0  0  0
 26102  1  0  0  0  0
 26103  1  0  0  0  0
 27 28  2  0  0  0  0
 27 29  1  0  0  0  0
 28 30  1  0  0  0  0
 28104  1  0  0  0  0
 29 31  2  0  0  0  0
 29105  1  0  0  0  0
 30 32  2  0  0  0  0
 30106  1  0  0  0  0
 31 32  1  0  0  0  0
 31107  1  0  0  0  0
 32 33  1  0  0  0  0
 33108  1  0  0  0  0
 34 35  1  0  0  0  0
 34109  1  0  0  0  0
 35 36  1  0  0  0  0
 35 38  1  0  0  0  0
 35110  1  6  0  0  0
 36 37  2  0  0  0  0
 36 41  1  0  0  0  0
 38 39  1  0  0  0  0
 38 40  1  0  0  0  0
 38111  1  0  0  0  0
 39112  1  0  0  0  0
 39113  1  0  0  0  0
 39114  1  0  0  0  0
 40115  1  0  0  0  0
 40116  1  0  0  0  0
 40117  1  0  0  0  0
 41 42  1  0  0  0  0
 41118  1  0  0  0  0
 42 43  1  0  0  0  0
 42 45  1  0  0  0  0
 42119  1  1  0  0  0
 43 44  2  0  0  0  0
 43 48  1  0  0  0  0
 45 46  1  0  0  0  0
 45 47  1  0  0  0  0
 45120  1  0  0  0  0
 46121  1  0  0  0  0
 46122  1  0  0  0  0
 46123  1  0  0  0  0
 47124  1  0  0  0  0
 47125  1  0  0  0  0
 47126  1  0  0  0  0
 48 49  1  0  0  0  0
 48127  1  0  0  0  0
 49 50  1  0  0  0  0
 49 52  1  0  0  0  0
 49128  1  1  0  0  0
 50 51  2  0  0  0  0
 50 55  1  0  0  0  0
 52 53  1  0  0  0  0
 52 54  1  0  0  0  0
 52129  1  6  0  0  0
 53130  1  0  0  0  0
 54131  1  0  0  0  0
 54132  1  0  0  0  0
 54133  1  0  0  0  0
 55 56  1  0  0  0  0
 55134  1  0  0  0  0
 56 57  1  0  0  0  0
 56 59  1  0  0  0  0
 56135  1  1  0  0  0
 57 58  1  0  0  0  0
 57136  1  0  0  0  0
 57137  1  0  0  0  0
 58 61  1  0  0  0  0
 59 60  2  0  0  0  0
 59 65  1  0  0  0  0
 61 62  1  0  0  0  0
 61 63  1  0  0  0  0
 61 64  2  0  0  0  0
 65 66  1  0  0  0  0
 65138  1  0  0  0  0
 66 67  1  0  0  0  0
 66 69  1  0  0  0  0
 66139  1  6  0  0  0
 67 68  1  0  0  0  0
 67 75  2  0  0  0  0
 69 70  1  0  0  0  0
 69140  1  0  0  0  0
 69141  1  0  0  0  0
 70 71  1  0  0  0  0
 70 72  2  0  0  0  0
 71 73  2  0  0  0  0
 72 74  1  0  0  0  0
 72142  1  0  0  0  0
 73 74  1  0  0  0  0
 73143  1  0  0  0  0
 74144  1  0  0  0  0
M  CHG  3   1   1   9   1  68  -1
M  END
