4jg0_ligand
 OpenBabel08222323353D

127127  0  0  1  0  0  0  0  0999 V2000
   -3.6210   39.9750    4.8050 N   0  3  0  0  0  0  0  0  0  0  0  0
   -4.3420   38.7010    4.5300 C   0  0  2  0  0  0  0  0  0  0  0  0
   -3.5410   37.8470    3.5590 C   0  0  0  0  0  0  0  0  0  0  0  0
   -3.7710   37.8840    2.3530 O   0  0  0  0  0  0  0  0  0  0  0  0
   -5.7310   38.9910    3.9570 C   0  0  0  0  0  0  0  0  0  0  0  0
   -6.6020   39.8690    4.8470 C   0  0  0  0  0  0  0  0  0  0  0  0
   -7.8790   40.3020    4.1360 C   0  0  0  0  0  0  0  0  0  0  0  0
   -8.7060   41.2450    5.0020 C   0  0  0  0  0  0  0  0  0  0  0  0
   -9.9090   41.7730    4.2930 N   0  3  0  0  0  0  0  0  0  0  0  0
   -2.6010   37.0720    4.0890 N   0  0  0  0  0  0  0  0  0  0  0  0
   -1.6730   36.3420    3.2490 C   0  0  0  0  0  0  0  0  0  0  0  0
   -0.8550   37.3460    2.4640 C   0  0  0  0  0  0  0  0  0  0  0  0
   -0.7850   37.2880    1.2380 O   0  0  0  0  0  0  0  0  0  0  0  0
   -0.2390   38.2760    3.1860 N   0  0  0  0  0  0  0  0  0  0  0  0
    0.4750   39.3820    2.5650 C   0  0  2  0  0  0  0  0  0  0  0  0
    1.9510   39.0910    2.3430 C   0  0  0  0  0  0  0  0  0  0  0  0
    2.7620   40.0160    2.3090 O   0  0  0  0  0  0  0  0  0  0  0  0
    0.3310   40.6470    3.4220 C   0  0  0  0  0  0  0  0  0  0  0  0
    1.0390   40.5290    4.7620 C   0  0  0  0  0  0  0  0  0  0  0  0
    1.4820   39.4500    5.1510 O   0  0  0  0  0  0  0  0  0  0  0  0
    1.1400   41.6430    5.4780 N   0  0  0  0  0  0  0  0  0  0  0  0
    2.3140   37.8180    2.1930 N   0  0  0  0  0  0  0  0  0  0  0  0
    3.7190   37.4890    1.9610 C   0  0  2  0  0  0  0  0  0  0  0  0
    3.9750   36.2840    1.0550 C   0  0  0  0  0  0  0  0  0  0  0  0
    3.1350   35.3970    0.8990 O   0  0  0  0  0  0  0  0  0  0  0  0
    4.4670   37.3270    3.2890 C   0  0  0  0  0  0  0  0  0  0  0  0
    4.1180   36.0940    4.1000 C   0  0  0  0  0  0  0  0  0  0  0  0
    4.7310   34.8760    3.8480 C   0  0  0  0  0  0  0  0  0  0  0  0
    3.2060   36.1600    5.1460 C   0  0  0  0  0  0  0  0  0  0  0  0
    4.4310   33.7530    4.6000 C   0  0  0  0  0  0  0  0  0  0  0  0
    2.8990   35.0410    5.9030 C   0  0  0  0  0  0  0  0  0  0  0  0
    3.5160   33.8420    5.6250 C   0  0  0  0  0  0  0  0  0  0  0  0
    3.2200   32.7290    6.3770 O   0  0  0  0  0  0  0  0  0  0  0  0
    5.1600   36.2890    0.4570 N   0  0  0  0  0  0  0  0  0  0  0  0
    5.5980   35.2400   -0.4510 C   0  0  2  0  0  0  0  0  0  0  0  0
    6.7170   34.4330    0.1960 C   0  0  0  0  0  0  0  0  0  0  0  0
    7.6290   35.0000    0.8110 O   0  0  0  0  0  0  0  0  0  0  0  0
    6.1040   35.8500   -1.7790 C   0  0  0  0  0  0  0  0  0  0  0  0
    6.7900   34.8010   -2.6430 C   0  0  0  0  0  0  0  0  0  0  0  0
    4.9540   36.5000   -2.5310 C   0  0  0  0  0  0  0  0  0  0  0  0
    6.6270   33.1110    0.0760 N   0  0  0  0  0  0  0  0  0  0  0  0
    7.6970   32.2210    0.5160 C   0  0  2  0  0  0  0  0  0  0  0  0
    8.4360   31.6740   -0.7040 C   0  0  0  0  0  0  0  0  0  0  0  0
    9.6470   31.8330   -0.8250 O   0  0  0  0  0  0  0  0  0  0  0  0
    7.1520   31.0670    1.3790 C   0  0  0  0  0  0  0  0  0  0  0  0
    8.2490   30.0660    1.7070 C   0  0  0  0  0  0  0  0  0  0  0  0
    6.5420   31.6240    2.6560 C   0  0  0  0  0  0  0  0  0  0  0  0
    7.6950   31.0420   -1.6070 N   0  0  0  0  0  0  0  0  0  0  0  0
    8.2610   30.5560   -2.8640 C   0  0  2  0  0  0  0  0  0  0  0  0
    8.0430   31.6090   -3.9470 C   0  0  0  0  0  0  0  0  0  0  0  0
    6.9090   31.8930   -4.3230 O   0  0  0  0  0  0  0  0  0  0  0  0
    7.6110   29.2250   -3.2800 C   0  0  2  0  0  0  0  0  0  0  0  0
    7.8460   28.2460   -2.2630 O   0  0  0  0  0  0  0  0  0  0  0  0
    8.1810   28.7240   -4.5980 C   0  0  0  0  0  0  0  0  0  0  0  0
    9.1330   32.1890   -4.4420 N   0  0  0  0  0  0  0  0  0  0  0  0
    9.0750   33.3050   -5.3500 C   0  0  1  0  0  0  0  0  0  0  0  0
   10.3680   34.0520   -5.2730 C   0  0  0  0  0  0  0  0  0  0  0  0
   11.5120   33.3250   -5.5140 O   0  0  0  0  0  0  0  0  0  0  0  0
    8.8510   32.8610   -6.7580 C   0  0  0  0  0  0  0  0  0  0  0  0
    8.8253   31.6342   -7.0441 O   0  5  0  0  0  0  0  0  0  0  0  0
   12.9360   33.9600   -5.5140 P   0  0  0  0  0  0  0  0  0  0  0  0
   13.4340   34.1050   -4.0910 O   0  0  0  0  0  1  0  0  0  0  0  0
   13.8350   33.0340   -6.3040 O   0  0  0  0  0  1  0  0  0  0  0  0
   12.9180   35.3080   -6.1870 O   0  0  0  0  0  0  0  0  0  0  0  0
    8.6866   33.7190   -7.6660 O   0  0  0  0  0  0  0  0  0  0  0  0
   -4.1593   40.5334    5.4488 H   0  0  0  0  0  0  0  0  0  0  0  0
   -3.4955   40.4828    3.9434 H   0  0  0  0  0  0  0  0  0  0  0  0
   -2.7203   39.7709    5.2090 H   0  0  0  0  0  0  0  0  0  0  0  0
   -4.4577   38.1491    5.4744 H   0  0  0  0  0  0  0  0  0  0  0  0
   -6.2488   38.0324    3.8052 H   0  0  0  0  0  0  0  0  0  0  0  0
   -5.6060   39.4977    2.9887 H   0  0  0  0  0  0  0  0  0  0  0  0
   -6.0312   40.7652    5.1317 H   0  0  0  0  0  0  0  0  0  0  0  0
   -6.8717   39.3035    5.7511 H   0  0  0  0  0  0  0  0  0  0  0  0
   -8.4795   39.4100    3.9042 H   0  0  0  0  0  0  0  0  0  0  0  0
   -7.6113   40.8168    3.2015 H   0  0  0  0  0  0  0  0  0  0  0  0
   -8.0734   42.0936    5.3013 H   0  0  0  0  0  0  0  0  0  0  0  0
   -9.0369   40.7002    5.8985 H   0  0  0  0  0  0  0  0  0  0  0  0
  -10.4181   42.3885    4.9078 H   0  0  0  0  0  0  0  0  0  0  0  0
  -10.5021   41.0051    4.0199 H   0  0  0  0  0  0  0  0  0  0  0  0
   -9.6191   42.2820    3.4727 H   0  0  0  0  0  0  0  0  0  0  0  0
   -2.5328   36.9912    5.0834 H   0  0  0  0  0  0  0  0  0  0  0  0
   -2.2289   35.6923    2.5570 H   0  0  0  0  0  0  0  0  0  0  0  0
   -1.0084   35.7280    3.8745 H   0  0  0  0  0  0  0  0  0  0  0  0
   -0.2667   38.2143    4.1837 H   0  0  0  0  0  0  0  0  0  0  0  0
    0.0155   39.5699    1.5834 H   0  0  0  0  0  0  0  0  0  0  0  0
   -0.7384   40.8297    3.6035 H   0  0  0  0  0  0  0  0  0  0  0  0
    0.7598   41.4968    2.8707 H   0  0  0  0  0  0  0  0  0  0  0  0
    1.5958   41.6258    6.3679 H   0  0  0  0  0  0  0  0  0  0  0  0
    0.7603   42.4990    5.1272 H   0  0  0  0  0  0  0  0  0  0  0  0
    1.6286   37.0912    2.2389 H   0  0  0  0  0  0  0  0  0  0  0  0
    4.1554   38.3580    1.4467 H   0  0  0  0  0  0  0  0  0  0  0  0
    4.2498   38.2100    3.9080 H   0  0  0  0  0  0  0  0  0  0  0  0
    5.5437   37.2906    3.0670 H   0  0  0  0  0  0  0  0  0  0  0  0
    5.4583   34.8018    3.0476 H   0  0  0  0  0  0  0  0  0  0  0  0
    2.7257   37.1046    5.3741 H   0  0  0  0  0  0  0  0  0  0  0  0
    4.9145   32.8075    4.3827 H   0  0  0  0  0  0  0  0  0  0  0  0
    2.1775   35.1091    6.7092 H   0  0  0  0  0  0  0  0  0  0  0  0
    2.2930   32.5351    6.3023 H   0  0  0  0  0  0  0  0  0  0  0  0
    5.7818   37.0506    0.6394 H   0  0  0  0  0  0  0  0  0  0  0  0
    4.7488   34.5738   -0.6634 H   0  0  0  0  0  0  0  0  0  0  0  0
    6.8423   36.6292   -1.5387 H   0  0  0  0  0  0  0  0  0  0  0  0
    7.1373   35.2658   -3.5775 H   0  0  0  0  0  0  0  0  0  0  0  0
    6.0781   33.9957   -2.8766 H   0  0  0  0  0  0  0  0  0  0  0  0
    7.6503   34.3836   -2.0993 H   0  0  0  0  0  0  0  0  0  0  0  0
    4.4745   37.2528   -1.8881 H   0  0  0  0  0  0  0  0  0  0  0  0
    4.2170   35.7322   -2.8088 H   0  0  0  0  0  0  0  0  0  0  0  0
    5.3382   36.9855   -3.4402 H   0  0  0  0  0  0  0  0  0  0  0  0
    5.8020   32.7154   -0.3275 H   0  0  0  0  0  0  0  0  0  0  0  0
    8.4051   32.8020    1.1252 H   0  0  0  0  0  0  0  0  0  0  0  0
    6.3661   30.5471    0.8116 H   0  0  0  0  0  0  0  0  0  0  0  0
    7.8330   29.2547    2.3225 H   0  0  0  0  0  0  0  0  0  0  0  0
    9.0530   30.5718    2.2618 H   0  0  0  0  0  0  0  0  0  0  0  0
    8.6544   29.6474    0.7740 H   0  0  0  0  0  0  0  0  0  0  0  0
    5.7517   32.3452    2.4006 H   0  0  0  0  0  0  0  0  0  0  0  0
    7.3220   32.1283    3.2453 H   0  0  0  0  0  0  0  0  0  0  0  0
    6.1111   30.8014    3.2457 H   0  0  0  0  0  0  0  0  0  0  0  0
    6.7234   30.8946   -1.4219 H   0  0  0  0  0  0  0  0  0  0  0  0
    9.3410   30.3950   -2.7309 H   0  0  0  0  0  0  0  0  0  0  0  0
    6.5277   29.3776   -3.3947 H   0  0  0  0  0  0  0  0  0  0  0  0
    7.4666   28.5438   -1.4446 H   0  0  0  0  0  0  0  0  0  0  0  0
    7.6981   27.7734   -4.8685 H   0  0  0  0  0  0  0  0  0  0  0  0
    9.2648   28.5679   -4.4931 H   0  0  0  0  0  0  0  0  0  0  0  0
    7.9923   29.4683   -5.3857 H   0  0  0  0  0  0  0  0  0  0  0  0
   10.0289   31.8357   -4.1726 H   0  0  0  0  0  0  0  0  0  0  0  0
    8.2497   33.9675   -5.0501 H   0  0  0  0  0  0  0  0  0  0  0  0
   10.4489   34.4770   -4.2617 H   0  0  0  0  0  0  0  0  0  0  0  0
   10.3280   34.8667   -6.0110 H   0  0  0  0  0  0  0  0  0  0  0  0
  1  2  1  0  0  0  0
  1 66  1  0  0  0  0
  1 67  1  0  0  0  0
  1 68  1  0  0  0  0
  2  3  1  0  0  0  0
  2  5  1  0  0  0  0
  2 69  1  1  0  0  0
  3  4  2  0  0  0  0
  3 10  1  0  0  0  0
  5  6  1  0  0  0  0
  5 70  1  0  0  0  0
  5 71  1  0  0  0  0
  6  7  1  0  0  0  0
  6 72  1  0  0  0  0
  6 73  1  0  0  0  0
  7  8  1  0  0  0  0
  7 74  1  0  0  0  0
  7 75  1  0  0  0  0
  8  9  1  0  0  0  0
  8 76  1  0  0  0  0
  8 77  1  0  0  0  0
  9 78  1  0  0  0  0
  9 79  1  0  0  0  0
  9 80  1  0  0  0  0
 10 11  1  0  0  0  0
 10 81  1  0  0  0  0
 11 12  1  0  0  0  0
 11 82  1  0  0  0  0
 11 83  1  0  0  0  0
 12 13  2  0  0  0  0
 12 14  1  0  0  0  0
 14 15  1  0  0  0  0
 14 84  1  0  0  0  0
 15 16  1  0  0  0  0
 15 18  1  0  0  0  0
 15 85  1  6  0  0  0
 16 17  2  0  0  0  0
 16 22  1  0  0  0  0
 18 19  1  0  0  0  0
 18 86  1  0  0  0  0
 18 87  1  0  0  0  0
 19 20  2  0  0  0  0
 19 21  1  0  0  0  0
 21 88  1  0  0  0  0
 21 89  1  0  0  0  0
 22 23  1  0  0  0  0
 22 90  1  0  0  0  0
 23 24  1  0  0  0  0
 23 26  1  0  0  0  0
 23 91  1  6  0  0  0
 24 25  2  0  0  0  0
 24 34  1  0  0  0  0
 26 27  1  0  0  0  0
 26 92  1  0  0  0  0
 26 93  1  0  0  0  0
 27 28  2  0  0  0  0
 27 29  1  0  0  0  0
 28 30  1  0  0  0  0
 28 94  1  0  0  0  0
 29 31  2  0  0  0  0
 29 95  1  0  0  0  0
 30 32  2  0  0  0  0
 30 96  1  0  0  0  0
 31 32  1  0  0  0  0
 31 97  1  0  0  0  0
 32 33  1  0  0  0  0
 33 98  1  0  0  0  0
 34 35  1  0  0  0  0
 34 99  1  0  0  0  0
 35 36  1  0  0  0  0
 35 38  1  0  0  0  0
 35100  1  6  0  0  0
 36 37  2  0  0  0  0
 36 41  1  0  0  0  0
 38 39  1  0  0  0  0
 38 40  1  0  0  0  0
 38101  1  0  0  0  0
 39102  1  0  0  0  0
 39103  1  0  0  0  0
 39104  1  0  0  0  0
 40105  1  0  0  0  0
 40106  1  0  0  0  0
 40107  1  0  0  0  0
 41 42  1  0  0  0  0
 41108  1  0  0  0  0
 42 43  1  0  0  0  0
 42 45  1  0  0  0  0
 42109  1  1  0  0  0
 43 44  2  0  0  0  0
 43 48  1  0  0  0  0
 45 46  1  0  0  0  0
 45 47  1  0  0  0  0
 45110  1  0  0  0  0
 46111  1  0  0  0  0
 46112  1  0  0  0  0
 46113  1  0  0  0  0
 47114  1  0  0  0  0
 47115  1  0  0  0  0
 47116  1  0  0  0  0
 48 49  1  0  0  0  0
 48117  1  0  0  0  0
 49 50  1  0  0  0  0
 49 52  1  0  0  0  0
 49118  1  1  0  0  0
 50 51  2  0  0  0  0
 50 55  1  0  0  0  0
 52 53  1  0  0  0  0
 52 54  1  0  0  0  0
 52119  1  6  0  0  0
 53120  1  0  0  0  0
 54121  1  0  0  0  0
 54122  1  0  0  0  0
 54123  1  0  0  0  0
 55 56  1  0  0  0  0
 55124  1  0  0  0  0
 56 57  1  0  0  0  0
 56 59  1  0  0  0  0
 56125  1  1  0  0  0
 57 58  1  0  0  0  0
 57126  1  0  0  0  0
 57127  1  0  0  0  0
 58 61  1  0  0  0  0
 59 60  1  0  0  0  0
 59 65  2  0  0  0  0
 61 62  1  0  0  0  0
 61 63  1  0  0  0  0
 61 64  2  0  0  0  0
M  CHG  3   1   1   9   1  60  -1
M  END
