4jg6_ligand
 OpenBabel08222323353D

 26 27  0  0  1  0  0  0  0  0999 V2000
   11.9170  -27.3320   21.1630 C   0  0  1  0  0  0  0  0  0  0  0  0
   12.5920  -26.7010   22.3320 C   0  0  0  0  0  0  0  0  0  0  0  0
   13.1130  -26.2170   23.2270 N   0  0  0  0  0  0  0  0  0  0  0  0
   12.8260  -27.2810   19.9800 C   0  0  0  0  0  0  0  0  0  0  0  0
   12.2790  -27.1690   18.6640 N   0  0  0  0  0  0  0  0  0  0  0  0
   14.0360  -27.3460   20.1330 O   0  0  0  0  0  0  0  0  0  0  0  0
   11.5910  -28.7560   21.4680 C   0  0  0  0  0  0  0  0  0  0  0  0
   12.6250  -29.8120   21.2590 C   0  0  0  0  0  0  0  0  0  0  0  0
   12.7460  -30.4280   20.0110 C   0  0  0  0  0  0  0  0  0  0  0  0
   13.7100  -31.4160   19.8070 C   0  0  0  0  0  0  0  0  0  0  0  0
   14.5400  -31.7740   20.8620 C   0  0  0  0  0  0  0  0  0  0  0  0
   15.5670  -32.7000   20.9650 N   0  0  0  0  0  0  0  0  0  0  0  0
   16.0690  -32.6880   22.1720 N   0  0  0  0  0  0  0  0  0  0  0  0
   15.4180  -31.7700   22.9270 C   0  0  0  0  0  0  0  0  0  0  0  0
   14.4140  -31.1540   22.1080 C   0  0  0  0  0  0  0  0  0  0  0  0
   13.4620  -30.1770   22.3040 C   0  0  0  0  0  0  0  0  0  0  0  0
   10.9896  -26.7848   20.9383 H   0  0  0  0  0  0  0  0  0  0  0  0
   12.8872  -27.1348   17.8710 H   0  0  0  0  0  0  0  0  0  0  0  0
   11.2881  -27.1249   18.5365 H   0  0  0  0  0  0  0  0  0  0  0  0
   10.7276  -29.0267   20.8426 H   0  0  0  0  0  0  0  0  0  0  0  0
   11.3027  -28.7972   22.5287 H   0  0  0  0  0  0  0  0  0  0  0  0
   12.0893  -30.1377   19.1989 H   0  0  0  0  0  0  0  0  0  0  0  0
   13.8097  -31.8967   18.8405 H   0  0  0  0  0  0  0  0  0  0  0  0
   15.8884  -33.3101   20.1999 H   0  0  0  0  0  0  0  0  0  0  0  0
   15.6213  -31.5402   23.9719 H   0  0  0  0  0  0  0  0  0  0  0  0
   13.3674  -29.6955   23.2706 H   0  0  0  0  0  0  0  0  0  0  0  0
  1  2  1  0  0  0  0
  1  4  1  0  0  0  0
  1  7  1  0  0  0  0
  1 17  1  6  0  0  0
  2  3  3  0  0  0  0
  4  5  1  0  0  0  0
  4  6  2  0  0  0  0
  5 18  1  0  0  0  0
  5 19  1  0  0  0  0
  7  8  1  0  0  0  0
  7 20  1  0  0  0  0
  7 21  1  0  0  0  0
  8  9  2  0  0  0  0
  8 16  1  0  0  0  0
  9 10  1  0  0  0  0
  9 22  1  0  0  0  0
 10 11  2  0  0  0  0
 10 23  1  0  0  0  0
 11 12  1  0  0  0  0
 11 15  1  0  0  0  0
 12 13  1  0  0  0  0
 12 24  1  0  0  0  0
 13 14  2  0  0  0  0
 14 15  1  0  0  0  0
 14 25  1  0  0  0  0
 15 16  2  0  0  0  0
 16 26  1  0  0  0  0
M  END
