4jgv_ligand
 OpenBabel08222323353D

 41 41  0  0  0  0  0  0  0  0999 V2000
  -16.2890   20.2170   -4.9680 C   0  0  0  0  0  0  0  0  0  0  0  0
  -17.2470   19.5270   -4.2280 C   0  0  0  0  0  0  0  0  0  0  0  0
  -16.9250   18.3430   -3.5930 C   0  0  0  0  0  0  0  0  0  0  0  0
  -15.6190   17.8570   -3.7240 C   0  0  0  0  0  0  0  0  0  0  0  0
  -14.6960   18.5720   -4.4530 C   0  0  0  0  0  0  0  0  0  0  0  0
  -15.0250   19.7290   -5.0790 C   0  0  0  0  0  0  0  0  0  0  0  0
  -17.8700   17.6690   -2.8570 O   0  0  0  0  0  0  0  0  0  0  0  0
  -18.5170   19.9930   -4.0940 O   0  0  0  0  0  0  0  0  0  0  0  0
  -16.5390   21.3790   -5.6090 O   0  0  0  0  0  0  0  0  0  0  0  0
  -13.3360   18.0940   -4.6610 C   0  0  0  0  0  0  0  0  0  0  0  0
  -12.1620   18.7890   -4.0490 C   0  0  0  0  0  0  0  0  0  0  0  0
  -10.9590   18.6150   -4.9760 C   0  0  0  0  0  0  0  0  0  0  0  0
  -10.2690   17.2610   -4.8160 C   0  0  0  0  0  0  0  0  0  0  0  0
   -8.7890   17.3840   -5.1820 C   0  0  0  0  0  0  0  0  0  0  0  0
   -7.8920   17.1700   -3.9720 C   0  0  0  0  0  0  0  0  0  0  0  0
   -7.9700   15.7220   -3.4850 C   0  0  0  0  0  0  0  0  0  0  0  0
   -6.6110   15.2000   -3.0540 C   0  0  0  0  0  0  0  0  0  0  0  0
   -5.6430   15.2040   -4.2160 C   0  0  0  0  0  0  0  0  0  0  0  0
  -13.2150   17.1500   -5.4040 O   0  0  0  0  0  0  0  0  0  0  0  0
  -15.3359   16.9223   -3.2537 H   0  0  0  0  0  0  0  0  0  0  0  0
  -14.2844   20.2617   -5.6645 H   0  0  0  0  0  0  0  0  0  0  0  0
  -18.6903   18.1474   -2.8829 H   0  0  0  0  0  0  0  0  0  0  0  0
  -18.6067   20.8073   -4.5750 H   0  0  0  0  0  0  0  0  0  0  0  0
  -15.9656   22.0563   -5.2697 H   0  0  0  0  0  0  0  0  0  0  0  0
  -11.9402   18.3475   -3.0662 H   0  0  0  0  0  0  0  0  0  0  0  0
  -12.3857   19.8592   -3.9282 H   0  0  0  0  0  0  0  0  0  0  0  0
  -10.2293   19.4079   -4.7550 H   0  0  0  0  0  0  0  0  0  0  0  0
  -11.3021   18.7121   -6.0166 H   0  0  0  0  0  0  0  0  0  0  0  0
  -10.7488   16.5265   -5.4795 H   0  0  0  0  0  0  0  0  0  0  0  0
  -10.3598   16.9265   -3.7721 H   0  0  0  0  0  0  0  0  0  0  0  0
   -8.6046   18.3889   -5.5895 H   0  0  0  0  0  0  0  0  0  0  0  0
   -8.5460   16.6290   -5.9442 H   0  0  0  0  0  0  0  0  0  0  0  0
   -8.2141   17.8405   -3.1616 H   0  0  0  0  0  0  0  0  0  0  0  0
   -6.8528   17.4016   -4.2484 H   0  0  0  0  0  0  0  0  0  0  0  0
   -8.3513   15.0914   -4.3016 H   0  0  0  0  0  0  0  0  0  0  0  0
   -8.6593   15.6704   -2.6293 H   0  0  0  0  0  0  0  0  0  0  0  0
   -6.7214   14.1715   -2.6798 H   0  0  0  0  0  0  0  0  0  0  0  0
   -6.2155   15.8413   -2.2526 H   0  0  0  0  0  0  0  0  0  0  0  0
   -4.6670   14.8227   -3.8814 H   0  0  0  0  0  0  0  0  0  0  0  0
   -5.5260   16.2310   -4.5923 H   0  0  0  0  0  0  0  0  0  0  0  0
   -6.0319   14.5612   -5.0194 H   0  0  0  0  0  0  0  0  0  0  0  0
  1  2  2  0  0  0  0
  1  6  1  0  0  0  0
  1  9  1  0  0  0  0
  2  3  1  0  0  0  0
  2  8  1  0  0  0  0
  3  4  2  0  0  0  0
  3  7  1  0  0  0  0
  4  5  1  0  0  0  0
  4 20  1  0  0  0  0
  5  6  2  0  0  0  0
  5 10  1  0  0  0  0
  6 21  1  0  0  0  0
  7 22  1  0  0  0  0
  8 23  1  0  0  0  0
  9 24  1  0  0  0  0
 10 11  1  0  0  0  0
 10 19  2  0  0  0  0
 11 12  1  0  0  0  0
 11 25  1  0  0  0  0
 11 26  1  0  0  0  0
 12 13  1  0  0  0  0
 12 27  1  0  0  0  0
 12 28  1  0  0  0  0
 13 14  1  0  0  0  0
 13 29  1  0  0  0  0
 13 30  1  0  0  0  0
 14 15  1  0  0  0  0
 14 31  1  0  0  0  0
 14 32  1  0  0  0  0
 15 16  1  0  0  0  0
 15 33  1  0  0  0  0
 15 34  1  0  0  0  0
 16 17  1  0  0  0  0
 16 35  1  0  0  0  0
 16 36  1  0  0  0  0
 17 18  1  0  0  0  0
 17 37  1  0  0  0  0
 17 38  1  0  0  0  0
 18 39  1  0  0  0  0
 18 40  1  0  0  0  0
 18 41  1  0  0  0  0
M  END
