4jhq_ligand
 OpenBabel08222323353D

 81 91  0  0  1  0  0  0  0  0999 V2000
    4.0260   -6.2680   -7.3020 C   0  0  0  0  0  0  0  0  0  0  0  0
   -0.3370  -12.0720    0.1430 N   0  0  0  0  0  0  0  0  0  0  0  0
    2.7090   -9.9120   -0.9120 S   0  0  0  0  0  0  0  0  0  0  0  0
    1.7210  -10.5000   -2.3300 C   0  0  2  0  0  0  0  0  0  0  0  0
    0.6500  -12.7710   -1.6510 N   0  0  0  0  0  0  0  0  0  0  0  0
   -0.0360  -13.1630   -0.5580 C   0  0  0  0  0  0  0  0  0  0  0  0
    3.5140    0.5330   -7.1270 N   0  0  0  0  0  0  0  0  0  0  0  0
   -0.3500  -14.3160   -0.2180 O   0  0  0  0  0  0  0  0  0  0  0  0
    0.5510  -11.3230   -1.7860 C   0  0  1  0  0  0  0  0  0  0  0  0
    0.2950  -10.8860   -0.3690 C   0  0  2  0  0  0  0  0  0  0  0  0
    1.5990  -10.5590    0.2930 C   0  0  0  0  0  0  0  0  0  0  0  0
    2.3560  -11.1950   -3.5240 C   0  0  0  0  0  0  0  0  0  0  0  0
    3.3600  -10.2550   -4.1410 C   0  0  0  0  0  0  0  0  0  0  0  0
    4.0600  -10.7730   -5.4000 C   0  0  0  0  0  0  0  0  0  0  0  0
    5.0270   -9.7990   -6.0580 C   0  0  0  0  0  0  0  0  0  0  0  0
    4.2660   -8.5750   -6.5480 C   0  0  0  0  0  0  0  0  0  0  0  0
    3.0600   -8.6490   -6.6460 O   0  0  0  0  0  0  0  0  0  0  0  0
    4.6020   -4.8620   -7.3670 C   0  0  0  0  0  0  0  0  0  0  0  0
    4.2920   -4.0710   -8.6770 C   0  0  0  0  0  0  0  0  0  0  0  0
    3.1990   -2.9750   -8.6460 C   0  0  0  0  0  0  0  0  0  0  0  0
    3.3900   -1.8480   -7.6230 C   0  0  0  0  0  0  0  0  0  0  0  0
    2.9990   -0.4130   -7.9580 C   0  0  0  0  0  0  0  0  0  0  0  0
    2.2500   -0.1580   -8.9090 O   0  0  0  0  0  0  0  0  0  0  0  0
    3.2930    1.9740   -7.2310 C   0  0  0  0  0  0  0  0  0  0  0  0
    3.3640    2.5160   -8.6680 C   0  0  0  0  0  0  0  0  0  0  0  0
    2.0120    2.4420   -9.4040 C   0  0  0  0  0  0  0  0  0  0  0  0
    1.7020    3.6090  -10.3460 C   0  0  0  0  0  0  0  0  0  0  0  0
    2.8410    3.9090  -11.3450 C   0  0  0  0  0  0  0  0  0  0  0  0
    2.6750    3.2990  -12.7390 C   0  0  0  0  0  0  0  0  0  0  0  0
    1.5730    3.0600  -13.1890 O   0  0  0  0  0  0  0  0  0  0  0  0
    3.8860    2.9920  -13.5700 C   0  0  0  0  0  0  0  0  0  0  0  0
    4.0070    1.9560  -14.4910 C   0  0  0  0  0  0  0  0  0  0  0  0
    5.2670    2.0160  -15.0580 C   0  0  0  0  0  0  0  0  0  0  0  0
    5.9240    3.0880  -14.4940 C   0  0  0  0  0  0  0  0  0  0  0  0
    5.0800    3.6910  -13.5800 C   0  0  0  0  0  0  0  0  0  0  0  0
    5.5170   -0.1690  -12.6480 C   0  0  0  0  0  0  0  0  0  0  0  0
    4.7340    0.4960  -11.7270 C   0  0  0  0  0  0  0  0  0  0  0  0
    5.5220    1.4520  -11.1180 C   0  0  0  0  0  0  0  0  0  0  0  0
    6.7770    1.3650  -11.6690 C   0  0  0  0  0  0  0  0  0  0  0  0
    4.9230   -7.3710   -6.8600 N   0  0  0  0  0  0  0  0  0  0  0  0
    6.7760    0.3690  -12.6150 C   0  0  0  0  0  0  0  0  0  0  0  0
    5.4230    1.7790  -13.0850 Fe  0  1  0  0  0  0  0  0  0  0  0  0
    3.6681   -6.5218   -8.3107 H   0  0  0  0  0  0  0  0  0  0  0  0
    3.1741   -6.2407   -6.6067 H   0  0  0  0  0  0  0  0  0  0  0  0
   -0.9391  -12.0767    0.9414 H   0  0  0  0  0  0  0  0  0  0  0  0
    1.2885   -9.5838   -2.7584 H   0  0  0  0  0  0  0  0  0  0  0  0
    1.1478  -13.3777   -2.2707 H   0  0  0  0  0  0  0  0  0  0  0  0
    4.0954    0.2141   -6.3785 H   0  0  0  0  0  0  0  0  0  0  0  0
   -0.3180  -11.1015   -2.4229 H   0  0  0  0  0  0  0  0  0  0  0  0
   -0.3760  -10.0162   -0.3127 H   0  0  0  0  0  0  0  0  0  0  0  0
    1.4343   -9.8105    1.0820 H   0  0  0  0  0  0  0  0  0  0  0  0
    2.0263  -11.4707    0.7359 H   0  0  0  0  0  0  0  0  0  0  0  0
    1.5809  -11.4480   -4.2624 H   0  0  0  0  0  0  0  0  0  0  0  0
    2.8616  -12.1143   -3.1935 H   0  0  0  0  0  0  0  0  0  0  0  0
    4.1323  -10.0415   -3.3873 H   0  0  0  0  0  0  0  0  0  0  0  0
    2.8362   -9.3240   -4.4032 H   0  0  0  0  0  0  0  0  0  0  0  0
    3.2853  -11.0316   -6.1368 H   0  0  0  0  0  0  0  0  0  0  0  0
    4.6231  -11.6777   -5.1271 H   0  0  0  0  0  0  0  0  0  0  0  0
    5.5176  -10.2905   -6.9111 H   0  0  0  0  0  0  0  0  0  0  0  0
    5.7877   -9.4883   -5.3267 H   0  0  0  0  0  0  0  0  0  0  0  0
    5.6948   -4.9380   -7.2671 H   0  0  0  0  0  0  0  0  0  0  0  0
    4.1954   -4.2892   -6.5205 H   0  0  0  0  0  0  0  0  0  0  0  0
    3.9893   -4.8079   -9.4356 H   0  0  0  0  0  0  0  0  0  0  0  0
    5.2279   -3.5853   -8.9904 H   0  0  0  0  0  0  0  0  0  0  0  0
    2.2392   -3.4659   -8.4273 H   0  0  0  0  0  0  0  0  0  0  0  0
    3.1570   -2.5163   -9.6449 H   0  0  0  0  0  0  0  0  0  0  0  0
    4.4609   -1.8305   -7.3722 H   0  0  0  0  0  0  0  0  0  0  0  0
    2.8094   -2.1312   -6.7327 H   0  0  0  0  0  0  0  0  0  0  0  0
    4.0594    2.4856   -6.6303 H   0  0  0  0  0  0  0  0  0  0  0  0
    2.2964    2.2012   -6.8246 H   0  0  0  0  0  0  0  0  0  0  0  0
    4.1023    1.9252   -9.2300 H   0  0  0  0  0  0  0  0  0  0  0  0
    3.6866    3.5670   -8.6313 H   0  0  0  0  0  0  0  0  0  0  0  0
    1.2165    2.4000   -8.6455 H   0  0  0  0  0  0  0  0  0  0  0  0
    2.0013    1.5164   -9.9983 H   0  0  0  0  0  0  0  0  0  0  0  0
    1.5240    4.5092   -9.7394 H   0  0  0  0  0  0  0  0  0  0  0  0
    0.7933    3.3653  -10.9160 H   0  0  0  0  0  0  0  0  0  0  0  0
    3.7777    3.5235  -10.9162 H   0  0  0  0  0  0  0  0  0  0  0  0
    2.9121    5.0007  -11.4595 H   0  0  0  0  0  0  0  0  0  0  0  0
    5.2351    4.6831  -13.1308 H   0  0  0  0  0  0  0  0  0  0  0  0
    5.9149   -7.2643   -6.7904 H   0  0  0  0  0  0  0  0  0  0  0  0
    7.6720   -0.0776  -13.0707 H   0  0  0  0  0  0  0  0  0  0  0  0
  1 40  1  0  0  0  0
  1 43  1  0  0  0  0
  1 44  1  0  0  0  0
  2  6  1  0  0  0  0
  2 45  1  0  0  0  0
  3 11  1  0  0  0  0
  4  3  1  0  0  0  0
  4  9  1  0  0  0  0
  4 46  1  6  0  0  0
  5  6  1  0  0  0  0
  5 47  1  0  0  0  0
  6  8  2  0  0  0  0
  7 22  1  0  0  0  0
  7 48  1  0  0  0  0
  9  5  1  0  0  0  0
  9 10  1  0  0  0  0
  9 49  1  6  0  0  0
 10  2  1  0  0  0  0
 10 11  1  0  0  0  0
 10 50  1  1  0  0  0
 11 51  1  0  0  0  0
 11 52  1  0  0  0  0
 12  4  1  0  0  0  0
 12 53  1  0  0  0  0
 12 54  1  0  0  0  0
 13 12  1  0  0  0  0
 13 55  1  0  0  0  0
 13 56  1  0  0  0  0
 14 13  1  0  0  0  0
 14 57  1  0  0  0  0
 14 58  1  0  0  0  0
 15 14  1  0  0  0  0
 15 59  1  0  0  0  0
 15 60  1  0  0  0  0
 16 15  1  0  0  0  0
 16 17  2  0  0  0  0
 18  1  1  0  0  0  0
 18 61  1  0  0  0  0
 18 62  1  0  0  0  0
 19 18  1  0  0  0  0
 19 63  1  0  0  0  0
 19 64  1  0  0  0  0
 20 19  1  0  0  0  0
 20 65  1  0  0  0  0
 20 66  1  0  0  0  0
 21 20  1  0  0  0  0
 21 67  1  0  0  0  0
 21 68  1  0  0  0  0
 22 21  1  0  0  0  0
 22 23  2  0  0  0  0
 24  7  1  0  0  0  0
 24 69  1  0  0  0  0
 24 70  1  0  0  0  0
 25 24  1  0  0  0  0
 25 71  1  0  0  0  0
 25 72  1  0  0  0  0
 26 25  1  0  0  0  0
 26 73  1  0  0  0  0
 26 74  1  0  0  0  0
 27 26  1  0  0  0  0
 27 75  1  0  0  0  0
 27 76  1  0  0  0  0
 28 27  1  0  0  0  0
 28 77  1  0  0  0  0
 28 78  1  0  0  0  0
 29 28  1  0  0  0  0
 29 30  2  0  0  0  0
 31 29  1  0  0  0  0
 32 31  2  3  0  0  0
 33 32  1  0  0  0  0
 34 33  2  3  0  0  0
 35 31  1  0  0  0  0
 35 34  1  0  0  0  0
 35 79  1  0  0  0  0
 36 37  2  3  0  0  0
 36 41  1  0  0  0  0
 37 38  1  0  0  0  0
 39 38  2  3  0  0  0
 40 16  1  0  0  0  0
 40 80  1  0  0  0  0
 41 39  1  0  0  0  0
 41 81  1  0  0  0  0
 42 32  1  0  0  0  0
 42 33  1  0  0  0  0
 42 34  1  0  0  0  0
 42 35  1  0  0  0  0
 42 36  1  0  0  0  0
 42 37  1  0  0  0  0
 42 38  1  0  0  0  0
 42 39  1  0  0  0  0
 42 41  1  0  0  0  0
M  CHG  1  42   3
M  END
