4jht_ligand
 OpenBabel08222323353D

 20 21  0  0  0  0  0  0  0  0999 V2000
   -4.2110    3.6990   -1.4620 O   0  5  0  0  0  0  0  0  0  0  0  0
   -2.6560    4.6800   -0.3180 O   0  0  0  0  0  0  0  0  0  0  0  0
   -4.0790   -0.6340    3.0870 O   0  0  0  0  0  0  0  0  0  0  0  0
   -1.1070    3.2420    3.2310 C   0  0  0  0  0  0  0  0  0  0  0  0
   -1.3090    2.1450    4.0420 C   0  0  0  0  0  0  0  0  0  0  0  0
   -4.6550    0.5420    1.0920 C   0  0  0  0  0  0  0  0  0  0  0  0
   -4.4860    1.6150    0.2540 C   0  0  0  0  0  0  0  0  0  0  0  0
   -1.8450    3.4310    2.0890 C   0  0  0  0  0  0  0  0  0  0  0  0
   -2.2570    1.2180    3.6790 N   0  0  0  0  0  0  0  0  0  0  0  0
   -3.4530    3.7180   -0.4550 C   0  0  0  0  0  0  0  0  0  0  0  0
   -3.9050    0.4250    2.2410 C   0  0  0  0  0  0  0  0  0  0  0  0
   -3.5540    2.5990    0.5300 C   0  0  0  0  0  0  0  0  0  0  0  0
   -2.7810    2.4890    1.6960 C   0  0  0  0  0  0  0  0  0  0  0  0
   -2.9650    1.3810    2.5390 C   0  0  0  0  0  0  0  0  0  0  0  0
   -3.9005   -1.4426    2.6213 H   0  0  0  0  0  0  0  0  0  0  0  0
   -0.3502    3.9697    3.5008 H   0  0  0  0  0  0  0  0  0  0  0  0
   -0.7305    2.0160    4.9496 H   0  0  0  0  0  0  0  0  0  0  0  0
   -5.3855   -0.2206    0.8475 H   0  0  0  0  0  0  0  0  0  0  0  0
   -5.0937    1.6930   -0.6403 H   0  0  0  0  0  0  0  0  0  0  0  0
   -1.6942    4.3227    1.4914 H   0  0  0  0  0  0  0  0  0  0  0  0
  3 15  1  0  0  0  0
  4  8  1  0  0  0  0
  4 16  1  0  0  0  0
  5  4  2  0  0  0  0
  5 17  1  0  0  0  0
  6  7  1  0  0  0  0
  6 18  1  0  0  0  0
  7 12  2  0  0  0  0
  7 19  1  0  0  0  0
  8 13  2  0  0  0  0
  8 20  1  0  0  0  0
  9  5  1  0  0  0  0
 10  1  1  0  0  0  0
 10  2  2  0  0  0  0
 11  3  1  0  0  0  0
 11  6  2  0  0  0  0
 11 14  1  0  0  0  0
 12 10  1  0  0  0  0
 12 13  1  0  0  0  0
 13 14  1  0  0  0  0
 14  9  2  0  0  0  0
M  CHG  1   1  -1
M  END
