4jib_ligand
 OpenBabel08222323353D

 61 64  0  0  1  0  0  0  0  0999 V2000
    7.3050   -3.7460   -4.9260 N   0  0  0  0  0  0  0  0  0  0  0  0
    7.6260   -3.8660   -2.2390 C   0  0  0  0  0  0  0  0  0  0  0  0
   10.0000   -4.2890   -2.8300 C   0  0  0  0  0  0  0  0  0  0  0  0
    6.9070   -6.6120   -2.8910 C   0  0  0  0  0  0  0  0  0  0  0  0
   12.6240   -9.5770   -7.7860 C   0  0  0  0  0  0  0  0  0  0  0  0
   14.0960  -11.7690   -5.3470 C   0  0  0  0  0  0  0  0  0  0  0  0
   14.6590  -13.0100   -5.6290 C   0  0  0  0  0  0  0  0  0  0  0  0
    8.3400   -6.1980   -2.6790 C   0  0  0  0  0  0  0  0  0  0  0  0
   11.9010   -8.3640   -7.8450 C   0  0  0  0  0  0  0  0  0  0  0  0
   11.3060   -8.6230   -5.5110 C   0  0  0  0  0  0  0  0  0  0  0  0
    8.4590   -4.9950   -8.2650 C   0  0  0  0  0  0  0  0  0  0  0  0
    7.5670   -4.8310   -9.0820 O   0  0  0  0  0  0  0  0  0  0  0  0
    8.2120   -4.6530   -6.8290 C   0  0  0  0  0  0  0  0  0  0  0  0
    7.2830   -3.8050   -6.3430 N   0  0  0  0  0  0  0  0  0  0  0  0
    6.3040   -2.9450   -7.0110 C   0  0  0  0  0  0  0  0  0  0  0  0
    5.0040   -3.6750   -7.2470 C   0  0  0  0  0  0  0  0  0  0  0  0
    4.2000   -2.8280   -8.0580 O   0  0  0  0  0  0  0  0  0  0  0  0
    9.5870   -5.5110   -8.6800 N   0  0  0  0  0  0  0  0  0  0  0  0
   10.7330   -5.7180   -7.8400 C   0  0  0  0  0  0  0  0  0  0  0  0
   10.4950   -6.6220   -6.6570 C   0  0  2  0  0  0  0  0  0  0  0  0
    9.8750   -6.1310   -5.6540 N   0  0  0  0  0  0  0  0  0  0  0  0
    8.8720   -5.1600   -5.7050 C   0  0  0  0  0  0  0  0  0  0  0  0
    8.3090   -4.5970   -4.5550 C   0  0  0  0  0  0  0  0  0  0  0  0
    8.5700   -4.7410   -3.0690 C   0  0  0  0  0  0  0  0  0  0  0  0
   11.2360   -7.9160   -6.6890 C   0  0  0  0  0  0  0  0  0  0  0  0
   12.0230   -9.8000   -5.4890 C   0  0  0  0  0  0  0  0  0  0  0  0
   12.7000  -10.3280   -6.5950 C   0  0  0  0  0  0  0  0  0  0  0  0
   13.3910  -11.4900   -6.4560 N   0  0  0  0  0  0  0  0  0  0  0  0
   13.4560  -12.4150   -7.4130 C   0  0  0  0  0  0  0  0  0  0  0  0
   12.7700  -12.3690   -8.7530 C   0  0  0  0  0  0  0  0  0  0  0  0
   14.2530  -13.3830   -6.8810 N   0  0  0  0  0  0  0  0  0  0  0  0
    7.8477   -3.9993   -1.1698 H   0  0  0  0  0  0  0  0  0  0  0  0
    6.5846   -4.1599   -2.4369 H   0  0  0  0  0  0  0  0  0  0  0  0
    7.7677   -2.8104   -2.5140 H   0  0  0  0  0  0  0  0  0  0  0  0
   10.6855   -4.9125   -3.4227 H   0  0  0  0  0  0  0  0  0  0  0  0
   10.2430   -4.3903   -1.7620 H   0  0  0  0  0  0  0  0  0  0  0  0
   10.1074   -3.2368   -3.1323 H   0  0  0  0  0  0  0  0  0  0  0  0
    6.7827   -7.6653   -2.5992 H   0  0  0  0  0  0  0  0  0  0  0  0
    6.6438   -6.4921   -3.9523 H   0  0  0  0  0  0  0  0  0  0  0  0
    6.2482   -5.9810   -2.2763 H   0  0  0  0  0  0  0  0  0  0  0  0
   13.1303   -9.9372   -8.6742 H   0  0  0  0  0  0  0  0  0  0  0  0
   14.2015  -11.1686   -4.4446 H   0  0  0  0  0  0  0  0  0  0  0  0
   15.3085  -13.5833   -4.9691 H   0  0  0  0  0  0  0  0  0  0  0  0
    8.9906   -6.8383   -3.2928 H   0  0  0  0  0  0  0  0  0  0  0  0
    8.5950   -6.3272   -1.6168 H   0  0  0  0  0  0  0  0  0  0  0  0
   11.8597   -7.7898   -8.7635 H   0  0  0  0  0  0  0  0  0  0  0  0
   10.8076   -8.2620   -4.6186 H   0  0  0  0  0  0  0  0  0  0  0  0
    6.7135   -2.6204   -7.9789 H   0  0  0  0  0  0  0  0  0  0  0  0
    6.1112   -2.0645   -6.3805 H   0  0  0  0  0  0  0  0  0  0  0  0
    4.5005   -3.8716   -6.2890 H   0  0  0  0  0  0  0  0  0  0  0  0
    5.1926   -4.6272   -7.7643 H   0  0  0  0  0  0  0  0  0  0  0  0
    4.0493   -2.0070   -7.6044 H   0  0  0  0  0  0  0  0  0  0  0  0
    9.6555   -5.7777   -9.6413 H   0  0  0  0  0  0  0  0  0  0  0  0
   11.0613   -4.7387   -7.4616 H   0  0  0  0  0  0  0  0  0  0  0  0
   11.5315   -6.1606   -8.4536 H   0  0  0  0  0  0  0  0  0  0  0  0
    9.5780   -7.0702   -7.0671 H   0  0  0  0  0  0  0  0  0  0  0  0
   10.1386   -6.4831   -4.7226 H   0  0  0  0  0  0  0  0  0  0  0  0
   12.0654  -10.3515   -4.5568 H   0  0  0  0  0  0  0  0  0  0  0  0
   13.0162  -13.2775   -9.3223 H   0  0  0  0  0  0  0  0  0  0  0  0
   13.1114  -11.4838   -9.3096 H   0  0  0  0  0  0  0  0  0  0  0  0
   11.6814  -12.3123   -8.6059 H   0  0  0  0  0  0  0  0  0  0  0  0
  1 14  1  0  0  0  0
  2 32  1  0  0  0  0
  2 33  1  0  0  0  0
  2 34  1  0  0  0  0
  3 35  1  0  0  0  0
  3 36  1  0  0  0  0
  3 37  1  0  0  0  0
  4 38  1  0  0  0  0
  4 39  1  0  0  0  0
  4 40  1  0  0  0  0
  5  9  2  0  0  0  0
  5 41  1  0  0  0  0
  6  7  2  0  0  0  0
  6 42  1  0  0  0  0
  7 31  1  0  0  0  0
  7 43  1  0  0  0  0
  8  4  1  0  0  0  0
  8 44  1  0  0  0  0
  8 45  1  0  0  0  0
  9 25  1  0  0  0  0
  9 46  1  0  0  0  0
 10 25  2  0  0  0  0
 10 47  1  0  0  0  0
 11 12  2  0  0  0  0
 13 11  1  0  0  0  0
 13 14  1  0  0  0  0
 14 15  1  0  0  0  0
 15 16  1  0  0  0  0
 15 48  1  0  0  0  0
 15 49  1  0  0  0  0
 16 17  1  0  0  0  0
 16 50  1  0  0  0  0
 16 51  1  0  0  0  0
 17 52  1  0  0  0  0
 18 11  1  0  0  0  0
 18 53  1  0  0  0  0
 19 18  1  0  0  0  0
 19 54  1  0  0  0  0
 19 55  1  0  0  0  0
 20 19  1  0  0  0  0
 20 21  1  0  0  0  0
 20 56  1  6  0  0  0
 21 22  1  0  0  0  0
 21 57  1  0  0  0  0
 22 13  2  0  0  0  0
 22 23  1  0  0  0  0
 23  1  2  0  0  0  0
 23 24  1  0  0  0  0
 24  2  1  0  0  0  0
 24  3  1  0  0  0  0
 24  8  1  0  0  0  0
 25 20  1  0  0  0  0
 26 10  1  0  0  0  0
 26 58  1  0  0  0  0
 27  5  1  0  0  0  0
 27 26  2  0  0  0  0
 27 28  1  0  0  0  0
 28  6  1  0  0  0  0
 28 29  1  0  0  0  0
 29 30  1  0  0  0  0
 29 31  2  0  0  0  0
 30 59  1  0  0  0  0
 30 60  1  0  0  0  0
 30 61  1  0  0  0  0
M  END
