4jjg_ligand
 OpenBabel08222323353D

 87 93  0  0  1  0  0  0  0  0999 V2000
   -5.5000  -22.0930  -29.1620 O   0  0  0  0  0  0  0  0  0  0  0  0
   -7.4540  -21.4650  -27.0910 Fe  0  0  0  0  0  0  0  0  0  0  0  0
   -8.4720  -22.7400  -27.9370 C   0  0  0  0  0  3  0  0  0  0  0  0
   -9.1350  -23.5720  -28.4690 O   0  0  0  0  0  0  0  0  0  0  0  0
   -7.7410  -22.2040  -25.4160 C   0  0  0  0  0  3  0  0  0  0  0  0
   -7.9540  -22.6780  -24.3300 O   0  0  0  0  0  0  0  0  0  0  0  0
   -8.7670  -19.9990  -27.3370 C   0  0  0  0  0  0  0  0  0  0  0  0
   -9.5750  -20.0020  -26.1650 O   0  0  0  0  0  0  0  0  0  0  0  0
   -8.9010  -19.0390  -28.4610 C   0  0  0  0  0  0  0  0  0  0  0  0
   -7.8090  -19.5400  -29.3600 C   0  0  1  0  0  3  0  0  0  0  0  0
   -7.1180  -20.5950  -28.9340 N   0  0  0  0  0  0  0  0  0  0  0  0
   -7.5750  -18.9240  -30.5830 C   0  0  0  0  0  0  0  0  0  0  0  0
   -8.3940  -17.7290  -31.0230 C   0  0  0  0  0  0  0  0  0  0  0  0
   -6.5680  -19.4130  -31.3850 C   0  0  0  0  0  0  0  0  0  0  0  0
   -5.7970  -20.5080  -30.9280 C   0  0  0  0  0  0  0  0  0  0  0  0
   -4.6720  -21.1140  -31.7360 C   0  0  0  0  0  0  0  0  0  0  0  0
   -6.1520  -21.0390  -29.6830 C   0  0  0  0  0  0  0  0  0  0  0  0
   -6.3270  -18.7950  -32.5840 O   0  0  0  0  0  0  0  0  0  0  0  0
   -6.7210  -19.4020  -34.0190 P   0  0  1  0  0  0  0  0  0  0  0  0
   -5.6010  -19.1140  -35.0200 O   0  0  0  0  0  1  0  0  0  0  0  0
   -7.2400  -20.8230  -33.8630 O   0  0  0  0  0  0  0  0  0  0  0  0
   -8.0180  -18.5120  -34.2990 O   0  0  0  0  0  0  0  0  0  0  0  0
   -7.8960  -17.1440  -34.7080 C   0  0  0  0  0  0  0  0  0  0  0  0
   -8.8500  -16.9360  -35.8850 C   0  0  1  0  0  0  0  0  0  0  0  0
   -9.0340  -15.5480  -36.1250 O   0  0  0  0  0  0  0  0  0  0  0  0
   -9.2710  -15.3790  -37.5180 C   0  0  2  0  0  0  0  0  0  0  0  0
   -8.2940  -16.3370  -38.1520 C   0  0  2  0  0  0  0  0  0  0  0  0
   -8.7820  -16.6680  -39.4520 O   0  0  0  0  0  0  0  0  0  0  0  0
   -8.3360  -17.5040  -37.1880 C   0  0  2  0  0  0  0  0  0  0  0  0
   -9.3450  -18.4220  -37.5970 O   0  0  0  0  0  0  0  0  0  0  0  0
   -9.1410  -13.9530  -37.9150 N   0  0  0  0  0  0  0  0  0  0  0  0
  -10.1790  -13.1280  -38.0510 C   0  0  0  0  0  0  0  0  0  0  0  0
  -11.5230  -13.2940  -37.9200 N   0  0  0  0  0  0  0  0  0  0  0  0
  -12.3910  -12.2950  -38.1530 C   0  0  0  0  0  0  0  0  0  0  0  0
  -13.7240  -12.5540  -37.9980 N   0  0  0  0  0  0  0  0  0  0  0  0
  -11.9370  -11.0620  -38.5090 N   0  0  0  0  0  0  0  0  0  0  0  0
  -10.5950  -10.8390  -38.6470 C   0  0  0  0  0  0  0  0  0  0  0  0
  -10.1170   -9.6080  -38.9950 O   0  0  0  0  0  0  0  0  0  0  0  0
   -9.6880  -11.8870  -38.4260 C   0  0  0  0  0  0  0  0  0  0  0  0
   -8.3490  -12.0020  -38.4870 N   0  0  0  0  0  0  0  0  0  0  0  0
   -8.0190  -13.2670  -38.1690 C   0  0  0  0  0  0  0  0  0  0  0  0
   -2.3980  -24.2360  -29.3210 O   0  0  0  0  0  0  0  0  0  0  0  0
   -2.8610  -24.0260  -27.9780 S   0  0  0  0  0  0  0  0  0  0  0  0
   -2.5270  -25.1830  -27.1820 O   0  0  0  0  0  0  0  0  0  0  0  0
   -2.1460  -22.6670  -27.2810 C   0  0  0  0  0  0  0  0  0  0  0  0
   -2.1040  -21.3490  -28.0560 C   0  0  0  0  0  0  0  0  0  0  0  0
   -2.7740  -20.2240  -27.5380 C   0  0  0  0  0  0  0  0  0  0  0  0
   -2.7500  -18.9920  -28.2070 C   0  0  0  0  0  0  0  0  0  0  0  0
   -2.0420  -18.8750  -29.4070 C   0  0  0  0  0  0  0  0  0  0  0  0
   -2.0180  -17.5600  -30.1500 C   0  0  0  0  0  0  0  0  0  0  0  0
   -1.3590  -19.9890  -29.9210 C   0  0  0  0  0  0  0  0  0  0  0  0
   -1.3790  -21.2200  -29.2490 C   0  0  0  0  0  0  0  0  0  0  0  0
   -4.4440  -23.9430  -28.0250 C   0  0  0  0  0  0  0  0  0  0  0  0
   -5.4420  -23.2830  -27.2890 N   0  0  0  0  0  0  0  0  0  0  0  0
   -6.0020  -22.3560  -27.8980 C   0  0  0  0  0  0  0  0  0  0  0  0
   -6.3239  -20.2292  -26.2988 H   0  0  0  0  0  0  0  0  0  0  0  0
   -8.7208  -18.0032  -28.1374 H   0  0  0  0  0  0  0  0  0  0  0  0
   -9.8885  -19.1068  -28.9408 H   0  0  0  0  0  0  0  0  0  0  0  0
   -9.1423  -17.4934  -30.2519 H   0  0  0  0  0  0  0  0  0  0  0  0
   -8.9037  -17.9622  -31.9695 H   0  0  0  0  0  0  0  0  0  0  0  0
   -7.7311  -16.8631  -31.1672 H   0  0  0  0  0  0  0  0  0  0  0  0
   -4.5531  -20.5548  -32.6758 H   0  0  0  0  0  0  0  0  0  0  0  0
   -4.9072  -22.1646  -31.9617 H   0  0  0  0  0  0  0  0  0  0  0  0
   -3.7372  -21.0635  -31.1585 H   0  0  0  0  0  0  0  0  0  0  0  0
   -6.8621  -16.9348  -35.0197 H   0  0  0  0  0  0  0  0  0  0  0  0
   -8.1709  -16.4767  -33.8779 H   0  0  0  0  0  0  0  0  0  0  0  0
   -9.8132  -17.4064  -35.6383 H   0  0  0  0  0  0  0  0  0  0  0  0
  -10.2943  -15.6973  -37.7660 H   0  0  0  0  0  0  0  0  0  0  0  0
   -7.2808  -15.9150  -38.2247 H   0  0  0  0  0  0  0  0  0  0  0  0
   -9.6372  -17.0743  -39.3740 H   0  0  0  0  0  0  0  0  0  0  0  0
   -7.3531  -17.9874  -37.0866 H   0  0  0  0  0  0  0  0  0  0  0  0
  -10.1878  -17.9835  -37.6010 H   0  0  0  0  0  0  0  0  0  0  0  0
  -14.0374  -13.4973  -37.7279 H   0  0  0  0  0  0  0  0  0  0  0  0
  -14.4152  -11.8059  -38.1513 H   0  0  0  0  0  0  0  0  0  0  0  0
  -12.5859  -10.3183  -38.6698 H   0  0  0  0  0  0  0  0  0  0  0  0
   -7.0070  -13.6670  -38.1253 H   0  0  0  0  0  0  0  0  0  0  0  0
   -1.1040  -22.9363  -27.0539 H   0  0  0  0  0  0  0  0  0  0  0  0
   -2.6861  -22.4683  -26.3436 H   0  0  0  0  0  0  0  0  0  0  0  0
   -3.3184  -20.3121  -26.6048 H   0  0  0  0  0  0  0  0  0  0  0  0
   -3.2760  -18.1373  -27.7973 H   0  0  0  0  0  0  0  0  0  0  0  0
   -1.4141  -17.6659  -31.0633 H   0  0  0  0  0  0  0  0  0  0  0  0
   -1.5775  -16.7836  -29.5072 H   0  0  0  0  0  0  0  0  0  0  0  0
   -3.0448  -17.2729  -30.4206 H   0  0  0  0  0  0  0  0  0  0  0  0
   -0.8085  -19.8963  -30.8502 H   0  0  0  0  0  0  0  0  0  0  0  0
   -0.8362  -22.0681  -29.6504 H   0  0  0  0  0  0  0  0  0  0  0  0
   -4.7408  -24.9984  -27.9359 H   0  0  0  0  0  0  0  0  0  0  0  0
   -4.6341  -23.5939  -29.0507 H   0  0  0  0  0  0  0  0  0  0  0  0
  1 17  1  0  0  0  0
  2  3  1  0  0  0  0
  2  5  1  0  0  0  0
  2  7  1  0  0  0  0
  2 11  1  0  0  0  0
  2 56  1  0  0  0  0
  3  4  2  0  0  0  0
  5  6  2  0  0  0  0
  7  8  2  0  0  0  0
  9  7  1  0  0  0  0
  9 57  1  0  0  0  0
  9 58  1  0  0  0  0
 10  9  1  0  0  0  0
 10 12  1  6  0  0  0
 11 10  1  0  0  0  0
 12 13  1  0  0  0  0
 13 59  1  0  0  0  0
 13 60  1  0  0  0  0
 13 61  1  0  0  0  0
 14 12  2  0  0  0  0
 14 18  1  0  0  0  0
 15 14  1  0  0  0  0
 15 16  1  0  0  0  0
 16 62  1  0  0  0  0
 16 63  1  0  0  0  0
 16 64  1  0  0  0  0
 17 11  1  0  0  0  0
 17 15  2  0  0  0  0
 18 19  1  0  0  0  0
 19 20  1  6  0  0  0
 19 21  2  0  0  0  0
 19 22  1  0  0  0  0
 22 23  1  0  0  0  0
 23 24  1  0  0  0  0
 23 65  1  0  0  0  0
 23 66  1  0  0  0  0
 24 25  1  0  0  0  0
 24 29  1  0  0  0  0
 24 67  1  1  0  0  0
 25 26  1  0  0  0  0
 26 31  1  0  0  0  0
 26 68  1  6  0  0  0
 27 26  1  0  0  0  0
 27 28  1  0  0  0  0
 27 69  1  6  0  0  0
 28 70  1  0  0  0  0
 29 27  1  0  0  0  0
 29 30  1  0  0  0  0
 29 71  1  1  0  0  0
 30 72  1  0  0  0  0
 31 32  1  0  0  0  0
 31 41  1  0  0  0  0
 32 33  1  0  0  0  0
 32 39  2  0  0  0  0
 33 34  2  0  0  0  0
 34 35  1  0  0  0  0
 34 36  1  0  0  0  0
 35 73  1  0  0  0  0
 35 74  1  0  0  0  0
 36 75  1  0  0  0  0
 37 36  1  0  0  0  0
 37 38  2  0  0  0  0
 39 37  1  0  0  0  0
 40 39  1  0  0  0  0
 41 40  2  0  0  0  0
 41 76  1  0  0  0  0
 43 42  2  0  0  0  0
 43 44  2  0  0  0  0
 43 45  1  0  0  0  0
 45 46  1  0  0  0  0
 45 77  1  0  0  0  0
 45 78  1  0  0  0  0
 46 47  2  0  0  0  0
 46 52  1  0  0  0  0
 47 48  1  0  0  0  0
 47 79  1  0  0  0  0
 48 49  2  0  0  0  0
 48 80  1  0  0  0  0
 49 50  1  0  0  0  0
 50 81  1  0  0  0  0
 50 82  1  0  0  0  0
 50 83  1  0  0  0  0
 51 49  1  0  0  0  0
 51 84  1  0  0  0  0
 52 51  2  0  0  0  0
 52 85  1  0  0  0  0
 53 43  1  0  0  0  0
 53 86  1  0  0  0  0
 53 87  1  0  0  0  0
 54 53  1  0  0  0  0
 55 54  2  0  0  0  0
 55  1  1  0  0  0  0
 55  2  1  0  0  0  0
M  END
