4jjq_ligand
 OpenBabel08222323353D

 49 48  0  0  1  0  0  0  0  0999 V2000
   31.8560  -15.7300   -7.0450 N   0  3  0  0  0  0  0  0  0  0  0  0
   32.1210  -14.5460   -7.9140 C   0  0  2  0  0  0  0  0  0  0  0  0
   33.5450  -14.0510   -7.6960 C   0  0  0  0  0  0  0  0  0  0  0  0
   34.0830  -14.1650   -6.5940 O   0  0  0  0  0  0  0  0  0  0  0  0
   31.1240  -13.4330   -7.6030 C   0  0  0  0  0  0  0  0  0  0  0  0
   34.1490  -13.5020   -8.7460 N   0  0  0  0  0  0  0  0  0  0  0  0
   35.5140  -12.9920   -8.6680 C   0  0  2  0  0  0  0  0  0  0  0  0
   35.8670  -12.2470   -9.9500 C   0  0  0  0  0  0  0  0  0  0  0  0
   35.0410  -12.1230  -10.8540 O   0  0  0  0  0  0  0  0  0  0  0  0
   36.5020  -14.1480   -8.4870 C   0  0  0  0  0  0  0  0  0  0  0  0
   36.5930  -14.9240   -9.6750 O   0  0  0  0  0  0  0  0  0  0  0  0
   37.0970  -11.7470  -10.0200 N   0  0  0  0  0  0  0  0  0  0  0  0
   37.5630  -11.0500  -11.2140 C   0  0  2  0  0  0  0  0  0  0  0  0
   38.0310  -12.1370  -12.1730 C   0  0  0  0  0  0  0  0  0  0  0  0
   38.2880  -13.2660  -11.7490 O   0  0  0  0  0  0  0  0  0  0  0  0
   38.7550  -10.1280  -10.9070 C   0  0  2  0  0  0  0  0  0  0  0  0
   39.8320  -10.9090  -10.3750 O   0  0  0  0  0  0  0  0  0  0  0  0
   38.3610   -9.0570   -9.9020 C   0  0  0  0  0  0  0  0  0  0  0  0
   38.1440  -11.8070  -13.4550 N   0  0  0  0  0  0  0  0  0  0  0  0
   38.5830  -12.7890  -14.4410 C   0  0  2  0  0  0  0  0  0  0  0  0
   40.0520  -13.1350  -14.2470 C   0  0  0  0  0  0  0  0  0  0  0  0
   40.4500  -14.1790  -14.8060 O   0  0  0  0  0  0  0  0  0  0  0  0
   38.3690  -12.2590  -15.8610 C   0  0  0  0  0  0  0  0  0  0  0  0
   39.1750  -11.1200  -16.1070 O   0  0  0  0  0  0  0  0  0  0  0  0
   30.9126  -16.0520   -7.1944 H   0  0  0  0  0  0  0  0  0  0  0  0
   31.9732  -15.4702   -6.0782 H   0  0  0  0  0  0  0  0  0  0  0  0
   32.5032  -16.4676   -7.2755 H   0  0  0  0  0  0  0  0  0  0  0  0
   32.0046  -14.8434   -8.9666 H   0  0  0  0  0  0  0  0  0  0  0  0
   31.3287  -12.5664   -8.2488 H   0  0  0  0  0  0  0  0  0  0  0  0
   31.2231  -13.1360   -6.5485 H   0  0  0  0  0  0  0  0  0  0  0  0
   30.1016  -13.7944   -7.7876 H   0  0  0  0  0  0  0  0  0  0  0  0
   33.6543  -13.4369   -9.6126 H   0  0  0  0  0  0  0  0  0  0  0  0
   35.5938  -12.3058   -7.8120 H   0  0  0  0  0  0  0  0  0  0  0  0
   36.1591  -14.7899   -7.6622 H   0  0  0  0  0  0  0  0  0  0  0  0
   37.4946  -13.7399   -8.2458 H   0  0  0  0  0  0  0  0  0  0  0  0
   35.7380  -15.2808   -9.8851 H   0  0  0  0  0  0  0  0  0  0  0  0
   37.7140  -11.8506   -9.2399 H   0  0  0  0  0  0  0  0  0  0  0  0
   36.7441  -10.4630  -11.6554 H   0  0  0  0  0  0  0  0  0  0  0  0
   39.0830   -9.6427  -11.8381 H   0  0  0  0  0  0  0  0  0  0  0  0
   40.0915  -11.5641  -11.0122 H   0  0  0  0  0  0  0  0  0  0  0  0
   39.2268   -8.4100   -9.6973 H   0  0  0  0  0  0  0  0  0  0  0  0
   38.0311   -9.5345   -8.9676 H   0  0  0  0  0  0  0  0  0  0  0  0
   37.5402   -8.4516  -10.3141 H   0  0  0  0  0  0  0  0  0  0  0  0
   37.9259  -10.8759  -13.7473 H   0  0  0  0  0  0  0  0  0  0  0  0
   37.9856  -13.7034  -14.3112 H   0  0  0  0  0  0  0  0  0  0  0  0
   40.7179  -12.5088  -13.6551 H   0  0  0  0  0  0  0  0  0  0  0  0
   37.3112  -11.9845  -15.9865 H   0  0  0  0  0  0  0  0  0  0  0  0
   38.6313  -13.0472  -16.5820 H   0  0  0  0  0  0  0  0  0  0  0  0
   38.9497  -10.4345  -15.4890 H   0  0  0  0  0  0  0  0  0  0  0  0
  1  2  1  0  0  0  0
  1 25  1  0  0  0  0
  1 26  1  0  0  0  0
  1 27  1  0  0  0  0
  2  3  1  0  0  0  0
  2  5  1  0  0  0  0
  2 28  1  6  0  0  0
  3  4  2  0  0  0  0
  3  6  1  0  0  0  0
  5 29  1  0  0  0  0
  5 30  1  0  0  0  0
  5 31  1  0  0  0  0
  6  7  1  0  0  0  0
  6 32  1  0  0  0  0
  7  8  1  0  0  0  0
  7 10  1  0  0  0  0
  7 33  1  1  0  0  0
  8  9  2  0  0  0  0
  8 12  1  0  0  0  0
 10 11  1  0  0  0  0
 10 34  1  0  0  0  0
 10 35  1  0  0  0  0
 11 36  1  0  0  0  0
 12 13  1  0  0  0  0
 12 37  1  0  0  0  0
 13 14  1  0  0  0  0
 13 16  1  0  0  0  0
 13 38  1  6  0  0  0
 14 15  2  0  0  0  0
 14 19  1  0  0  0  0
 16 17  1  0  0  0  0
 16 18  1  0  0  0  0
 16 39  1  6  0  0  0
 17 40  1  0  0  0  0
 18 41  1  0  0  0  0
 18 42  1  0  0  0  0
 18 43  1  0  0  0  0
 19 20  1  0  0  0  0
 19 44  1  0  0  0  0
 20 21  1  0  0  0  0
 20 23  1  0  0  0  0
 20 45  1  1  0  0  0
 21 22  2  0  0  0  0
 21 46  1  0  0  0  0
 23 24  1  0  0  0  0
 23 47  1  0  0  0  0
 23 48  1  0  0  0  0
 24 49  1  0  0  0  0
M  CHG  1   1   1
M  END
