4jjs_ligand
 OpenBabel08222323353D

 60 62  0  0  1  0  0  0  0  0999 V2000
  -27.0710   47.3740   55.3270 C   0  0  0  0  0  0  0  0  0  0  0  0
  -27.4580   47.7690   53.8720 C   0  0  0  0  0  0  0  0  0  0  0  0
  -28.1150   49.1690   53.7900 C   0  0  1  0  0  0  0  0  0  0  0  0
  -27.2200   50.2250   54.4610 C   0  0  0  0  0  0  0  0  0  0  0  0
  -26.8680   49.8560   55.9130 C   0  0  0  0  0  0  0  0  0  0  0  0
  -26.1780   48.4640   55.9750 C   0  0  1  0  0  0  0  0  0  0  0  0
  -25.8670   48.1260   57.4560 C   0  0  0  0  0  0  0  0  0  0  0  0
  -26.7700   47.7270   58.1870 O   0  0  0  0  0  0  0  0  0  0  0  0
  -24.2470   47.9710   59.3850 C   0  0  0  0  0  0  0  0  0  0  0  0
  -24.5320   48.2980   57.9310 N   0  0  0  0  0  0  0  0  0  0  0  0
  -23.4460   48.7730   57.0930 C   0  0  0  0  0  0  0  0  0  0  0  0
  -22.6080   47.9020   56.2760 C   0  0  0  0  0  0  0  0  0  0  0  0
  -21.5620   48.4760   55.5010 C   0  0  0  0  0  0  0  0  0  0  0  0
  -21.3380   49.8580   55.5280 C   0  0  0  0  0  0  0  0  0  0  0  0
  -22.1700   50.7180   56.3250 C   0  0  0  0  0  0  0  0  0  0  0  0
  -23.2030   50.1850   57.0980 C   0  0  0  0  0  0  0  0  0  0  0  0
  -22.8110   46.4450   56.2150 C   0  0  0  0  0  0  0  0  0  0  0  0
  -21.6420   45.7530   56.0390 O   0  5  0  0  0  0  0  0  0  0  0  0
  -23.8840   45.8660   56.3000 O   0  0  0  0  0  0  0  0  0  0  0  0
  -20.2890   50.3140   54.7550 O   0  0  0  0  0  0  0  0  0  0  0  0
  -19.4290   51.2720   55.2960 C   0  0  0  0  0  0  0  0  0  0  0  0
  -18.8310   51.1060   56.5970 C   0  0  0  0  0  0  0  0  0  0  0  0
  -17.9650   52.1010   57.1220 C   0  0  0  0  0  0  0  0  0  0  0  0
  -17.6680   53.2580   56.3550 C   0  0  0  0  0  0  0  0  0  0  0  0
  -18.2490   53.4330   55.0590 C   0  0  0  0  0  0  0  0  0  0  0  0
  -19.1350   52.4310   54.5050 C   0  0  0  0  0  0  0  0  0  0  0  0
  -19.7560   52.6000   53.1140 C   0  0  0  0  0  0  0  0  0  0  0  0
  -28.3700   49.6040   52.3320 C   0  0  0  0  0  0  0  0  0  0  0  0
  -22.9310   47.1980   59.7020 C   0  0  0  0  0  0  0  0  0  0  0  0
  -24.2860   49.2430   60.2430 C   0  0  0  0  0  0  0  0  0  0  0  0
  -19.4010   53.7750   52.4950 F   0  0  0  0  0  0  0  0  0  0  0  0
  -19.3660   51.6320   52.2650 F   0  0  0  0  0  0  0  0  0  0  0  0
  -21.1200   52.5250   53.0860 F   0  0  0  0  0  0  0  0  0  0  0  0
  -26.5208   46.4217   55.3079 H   0  0  0  0  0  0  0  0  0  0  0  0
  -27.9871   47.2564   55.9245 H   0  0  0  0  0  0  0  0  0  0  0  0
  -28.1666   47.0239   53.4812 H   0  0  0  0  0  0  0  0  0  0  0  0
  -26.5485   47.7699   53.2534 H   0  0  0  0  0  0  0  0  0  0  0  0
  -29.0786   49.1287   54.3190 H   0  0  0  0  0  0  0  0  0  0  0  0
  -27.7491   51.1894   54.4596 H   0  0  0  0  0  0  0  0  0  0  0  0
  -26.2882   50.3171   53.8838 H   0  0  0  0  0  0  0  0  0  0  0  0
  -27.7900   49.8288   56.5123 H   0  0  0  0  0  0  0  0  0  0  0  0
  -26.1862   50.6154   56.3233 H   0  0  0  0  0  0  0  0  0  0  0  0
  -25.2312   48.5124   55.4171 H   0  0  0  0  0  0  0  0  0  0  0  0
  -25.0719   47.3222   59.7144 H   0  0  0  0  0  0  0  0  0  0  0  0
  -20.9351   47.8401   54.8864 H   0  0  0  0  0  0  0  0  0  0  0  0
  -21.9940   51.7876   56.3257 H   0  0  0  0  0  0  0  0  0  0  0  0
  -23.8212   50.8393   57.7020 H   0  0  0  0  0  0  0  0  0  0  0  0
  -19.0438   50.2160   57.1781 H   0  0  0  0  0  0  0  0  0  0  0  0
  -17.5310   51.9773   58.1076 H   0  0  0  0  0  0  0  0  0  0  0  0
  -16.9984   54.0120   56.7527 H   0  0  0  0  0  0  0  0  0  0  0  0
  -18.0233   54.3251   54.4861 H   0  0  0  0  0  0  0  0  0  0  0  0
  -29.0095   48.8603   51.8340 H   0  0  0  0  0  0  0  0  0  0  0  0
  -27.4109   49.6788   51.7986 H   0  0  0  0  0  0  0  0  0  0  0  0
  -28.8715   50.5830   52.3238 H   0  0  0  0  0  0  0  0  0  0  0  0
  -22.8560   47.0311   60.7867 H   0  0  0  0  0  0  0  0  0  0  0  0
  -22.0677   47.7885   59.3614 H   0  0  0  0  0  0  0  0  0  0  0  0
  -22.9406   46.2289   59.1817 H   0  0  0  0  0  0  0  0  0  0  0  0
  -24.0773   48.9845   61.2916 H   0  0  0  0  0  0  0  0  0  0  0  0
  -25.2821   49.7039   60.1703 H   0  0  0  0  0  0  0  0  0  0  0  0
  -23.5266   49.9522   59.8821 H   0  0  0  0  0  0  0  0  0  0  0  0
  1  2  1  0  0  0  0
  1  6  1  0  0  0  0
  1 34  1  0  0  0  0
  1 35  1  0  0  0  0
  2  3  1  0  0  0  0
  2 36  1  0  0  0  0
  2 37  1  0  0  0  0
  3  4  1  0  0  0  0
  3 28  1  0  0  0  0
  3 38  1  1  0  0  0
  4  5  1  0  0  0  0
  4 39  1  0  0  0  0
  4 40  1  0  0  0  0
  5  6  1  0  0  0  0
  5 41  1  0  0  0  0
  5 42  1  0  0  0  0
  6  7  1  0  0  0  0
  6 43  1  6  0  0  0
  7  8  2  0  0  0  0
  7 10  1  0  0  0  0
  9 29  1  0  0  0  0
  9 30  1  0  0  0  0
  9 44  1  0  0  0  0
 10  9  1  0  0  0  0
 10 11  1  0  0  0  0
 11 12  2  0  0  0  0
 11 16  1  0  0  0  0
 12 13  1  0  0  0  0
 12 17  1  0  0  0  0
 13 14  2  0  0  0  0
 13 45  1  0  0  0  0
 14 15  1  0  0  0  0
 14 20  1  0  0  0  0
 15 16  2  0  0  0  0
 15 46  1  0  0  0  0
 16 47  1  0  0  0  0
 17 18  1  0  0  0  0
 17 19  2  0  0  0  0
 20 21  1  0  0  0  0
 21 22  2  0  0  0  0
 21 26  1  0  0  0  0
 22 23  1  0  0  0  0
 22 48  1  0  0  0  0
 23 24  2  0  0  0  0
 23 49  1  0  0  0  0
 24 25  1  0  0  0  0
 24 50  1  0  0  0  0
 25 26  2  0  0  0  0
 25 51  1  0  0  0  0
 26 27  1  0  0  0  0
 27 31  1  0  0  0  0
 27 32  1  0  0  0  0
 27 33  1  0  0  0  0
 28 52  1  0  0  0  0
 28 53  1  0  0  0  0
 28 54  1  0  0  0  0
 29 55  1  0  0  0  0
 29 56  1  0  0  0  0
 29 57  1  0  0  0  0
 30 58  1  0  0  0  0
 30 59  1  0  0  0  0
 30 60  1  0  0  0  0
M  CHG  1  18  -1
M  END
