4jkt_ligand
 OpenBabel08222323353D

 59 62  0  0  0  0  0  0  0  0999 V2000
   27.7460  -27.1070   -3.7930 O   0  0  0  0  0  0  0  0  0  0  0  0
   14.3820  -26.5930   -0.0930 O   0  0  0  0  0  0  0  0  0  0  0  0
   29.4820  -31.0090   -2.1260 C   0  0  0  0  0  0  0  0  0  0  0  0
   14.3500  -31.5390   -0.9900 C   0  0  0  0  0  0  0  0  0  0  0  0
   29.9070  -29.8820   -1.4840 C   0  0  0  0  0  0  0  0  0  0  0  0
   28.1070  -31.0800   -2.6960 C   0  0  0  0  0  0  0  0  0  0  0  0
   13.0490  -30.9200   -0.6070 C   0  0  0  0  0  0  0  0  0  0  0  0
   15.5220  -31.0320   -0.5080 C   0  0  0  0  0  0  0  0  0  0  0  0
   28.9890  -28.7150   -1.3450 C   0  0  0  0  0  0  0  0  0  0  0  0
   27.2700  -30.0110   -2.5680 C   0  0  0  0  0  0  0  0  0  0  0  0
   13.0300  -29.8420    0.2300 C   0  0  0  0  0  0  0  0  0  0  0  0
   15.5000  -29.8560    0.4080 C   0  0  0  0  0  0  0  0  0  0  0  0
   21.5880  -23.9440    0.1980 C   0  0  0  0  0  0  0  0  0  0  0  0
   19.7710  -22.3890   -1.3000 C   0  0  0  0  0  0  0  0  0  0  0  0
   22.6650  -22.9550   -0.0900 C   0  0  0  0  0  0  0  0  0  0  0  0
   19.0250  -22.1220   -0.0380 C   0  0  0  0  0  0  0  0  0  0  0  0
   26.8080  -27.6150   -1.7300 C   0  0  0  0  0  0  0  0  0  0  0  0
   14.3040  -28.1140    1.6740 C   0  0  0  0  0  0  0  0  0  0  0  0
   24.7810  -24.3040    0.1240 N   0  0  0  0  0  0  0  0  0  0  0  0
   17.1430  -23.6170   -0.7820 N   0  0  0  0  0  0  0  0  0  0  0  0
   25.7860  -24.9540   -0.6190 N   0  0  0  0  0  0  0  0  0  0  0  0
   16.3540  -24.7200   -0.3910 N   0  0  0  0  0  0  0  0  0  0  0  0
   26.4310  -25.4040   -2.9710 N   0  0  0  0  0  0  0  0  0  0  0  0
   16.0570  -26.3060    1.4880 N   0  0  0  0  0  0  0  0  0  0  0  0
   20.4970  -23.9890   -1.1820 S   0  0  0  0  0  0  0  0  0  0  0  0
   24.1590  -23.9360   -2.3240 S   0  0  0  0  0  0  0  0  0  0  0  0
   17.9810  -24.2830    1.5290 S   0  0  0  0  0  0  0  0  0  0  0  0
   27.0300  -26.7080   -2.8910 C   0  0  0  0  0  0  0  0  0  0  0  0
   14.8980  -26.9570    0.9510 C   0  0  0  0  0  0  0  0  0  0  0  0
   27.7290  -28.7780   -1.8640 C   0  0  0  0  0  0  0  0  0  0  0  0
   14.3100  -29.2890    0.7600 C   0  0  0  0  0  0  0  0  0  0  0  0
   23.8260  -23.7000   -0.6410 C   0  0  0  0  0  0  0  0  0  0  0  0
   18.0730  -23.2500    0.1460 C   0  0  0  0  0  0  0  0  0  0  0  0
   25.5800  -24.8490   -1.9590 C   0  0  0  0  0  0  0  0  0  0  0  0
   16.6860  -25.1930    0.8410 C   0  0  0  0  0  0  0  0  0  0  0  0
   30.1491  -31.8580   -2.2219 H   0  0  0  0  0  0  0  0  0  0  0  0
   14.3653  -32.3955   -1.6542 H   0  0  0  0  0  0  0  0  0  0  0  0
   30.9101  -29.8353   -1.0758 H   0  0  0  0  0  0  0  0  0  0  0  0
   27.7744  -31.9752   -3.2089 H   0  0  0  0  0  0  0  0  0  0  0  0
   12.1203  -31.3251   -0.9923 H   0  0  0  0  0  0  0  0  0  0  0  0
   16.4663  -31.4832   -0.7905 H   0  0  0  0  0  0  0  0  0  0  0  0
   29.3219  -27.8194   -0.8331 H   0  0  0  0  0  0  0  0  0  0  0  0
   26.2680  -30.0571   -2.9790 H   0  0  0  0  0  0  0  0  0  0  0  0
   12.0859  -29.3883    0.5092 H   0  0  0  0  0  0  0  0  0  0  0  0
   16.4287  -29.4517    0.7941 H   0  0  0  0  0  0  0  0  0  0  0  0
   21.0354  -23.6405    1.0994 H   0  0  0  0  0  0  0  0  0  0  0  0
   22.0292  -24.9392    0.3561 H   0  0  0  0  0  0  0  0  0  0  0  0
   20.5578  -21.6322   -1.4347 H   0  0  0  0  0  0  0  0  0  0  0  0
   19.0800  -22.3559   -2.1552 H   0  0  0  0  0  0  0  0  0  0  0  0
   22.9568  -22.4383    0.8362 H   0  0  0  0  0  0  0  0  0  0  0  0
   22.3099  -22.2177   -0.8250 H   0  0  0  0  0  0  0  0  0  0  0  0
   18.4758  -21.1722   -0.1166 H   0  0  0  0  0  0  0  0  0  0  0  0
   19.7226  -22.0731    0.8111 H   0  0  0  0  0  0  0  0  0  0  0  0
   25.7651  -27.9648   -1.7250 H   0  0  0  0  0  0  0  0  0  0  0  0
   27.0194  -27.0789   -0.7931 H   0  0  0  0  0  0  0  0  0  0  0  0
   13.2711  -27.8777    1.9692 H   0  0  0  0  0  0  0  0  0  0  0  0
   14.8998  -28.3377    2.5712 H   0  0  0  0  0  0  0  0  0  0  0  0
   26.6192  -24.8499   -3.7819 H   0  0  0  0  0  0  0  0  0  0  0  0
   16.4415  -26.6419    2.3479 H   0  0  0  0  0  0  0  0  0  0  0  0
  3 36  1  0  0  0  0
  4 37  1  0  0  0  0
  5  3  2  0  0  0  0
  5 38  1  0  0  0  0
  6  3  1  0  0  0  0
  6 39  1  0  0  0  0
  7  4  2  0  0  0  0
  7 40  1  0  0  0  0
  8  4  1  0  0  0  0
  8 41  1  0  0  0  0
  9  5  1  0  0  0  0
  9 42  1  0  0  0  0
 10  6  2  0  0  0  0
 10 43  1  0  0  0  0
 11  7  1  0  0  0  0
 11 44  1  0  0  0  0
 12  8  2  0  0  0  0
 12 45  1  0  0  0  0
 13 15  1  0  0  0  0
 13 46  1  0  0  0  0
 13 47  1  0  0  0  0
 14 25  1  0  0  0  0
 14 48  1  0  0  0  0
 14 49  1  0  0  0  0
 15 32  1  0  0  0  0
 15 50  1  0  0  0  0
 15 51  1  0  0  0  0
 16 14  1  0  0  0  0
 16 52  1  0  0  0  0
 16 53  1  0  0  0  0
 17 30  1  0  0  0  0
 17 54  1  0  0  0  0
 17 55  1  0  0  0  0
 18 31  1  0  0  0  0
 18 56  1  0  0  0  0
 18 57  1  0  0  0  0
 19 21  1  0  0  0  0
 20 33  2  0  0  0  0
 21 34  2  0  0  0  0
 22 20  1  0  0  0  0
 23 28  1  0  0  0  0
 23 58  1  0  0  0  0
 24 29  1  0  0  0  0
 24 35  1  0  0  0  0
 24 59  1  0  0  0  0
 25 13  1  0  0  0  0
 26 34  1  0  0  0  0
 27 35  1  0  0  0  0
 28  1  2  0  0  0  0
 28 17  1  0  0  0  0
 29  2  2  0  0  0  0
 29 18  1  0  0  0  0
 30  9  2  0  0  0  0
 30 10  1  0  0  0  0
 31 11  2  0  0  0  0
 31 12  1  0  0  0  0
 32 19  2  0  0  0  0
 32 26  1  0  0  0  0
 33 16  1  0  0  0  0
 33 27  1  0  0  0  0
 34 23  1  0  0  0  0
 35 22  2  0  0  0  0
M  END
