4jmh_ligand
 OpenBabel08222323353D

145149  0  0  1  0  0  0  0  0999 V2000
  -41.5380  -19.3810    3.1860 N   0  3  0  0  0  0  0  0  0  0  0  0
  -41.3240  -20.6890    3.8030 C   0  0  2  0  0  0  0  0  0  0  0  0
  -40.5750  -21.7330    2.9450 C   0  0  0  0  0  0  0  0  0  0  0  0
  -40.2420  -22.8040    3.4470 O   0  0  0  0  0  0  0  0  0  0  0  0
  -42.6360  -21.2700    4.3750 C   0  0  0  0  0  0  0  0  0  0  0  0
  -43.7380  -21.4170    3.3670 C   0  0  0  0  0  0  0  0  0  0  0  0
  -43.5360  -21.9330    2.1030 N   0  0  0  0  0  0  0  0  0  0  0  0
  -45.0590  -21.1260    3.4480 C   0  0  0  0  0  0  0  0  0  0  0  0
  -44.6830  -21.9440    1.4470 C   0  0  0  0  0  0  0  0  0  0  0  0
  -45.6230  -21.4580    2.2380 N   0  0  0  0  0  0  0  0  0  0  0  0
  -40.2900  -21.4320    1.6790 N   0  0  0  0  0  0  0  0  0  0  0  0
  -39.4780  -22.3420    0.8470 C   0  0  2  0  0  0  0  0  0  0  0  0
  -38.0420  -21.8350    0.6330 C   0  0  0  0  0  0  0  0  0  0  0  0
  -37.8350  -20.6570    0.3190 O   0  0  0  0  0  0  0  0  0  0  0  0
  -40.1400  -22.5920   -0.5100 C   0  0  0  0  0  0  0  0  0  0  0  0
  -40.8920  -23.9010   -0.6000 C   0  0  0  0  0  0  0  0  0  0  0  0
  -41.1340  -24.3300   -2.0340 C   0  0  0  0  0  0  0  0  0  0  0  0
  -41.3120  -23.4910   -2.9210 O   0  0  0  0  0  0  0  0  0  0  0  0
  -41.1270  -25.6450   -2.2740 N   0  0  0  0  0  0  0  0  0  0  0  0
  -37.0620  -22.7320    0.7800 N   0  0  0  0  0  0  0  0  0  0  0  0
  -35.6400  -22.3560    0.7460 C   0  0  2  0  0  0  0  0  0  0  0  0
  -34.8230  -23.0450   -0.3450 C   0  0  0  0  0  0  0  0  0  0  0  0
  -34.9930  -24.2430   -0.5780 O   0  0  0  0  0  0  0  0  0  0  0  0
  -34.9650  -22.6770    2.0870 C   0  0  0  0  0  0  0  0  0  0  0  0
  -35.5870  -21.9460    3.2510 C   0  0  0  0  0  0  0  0  0  0  0  0
  -35.1780  -20.6520    3.5880 C   0  0  0  0  0  0  0  0  0  0  0  0
  -36.5950  -22.5410    4.0060 C   0  0  0  0  0  0  0  0  0  0  0  0
  -35.7510  -19.9840    4.6530 C   0  0  0  0  0  0  0  0  0  0  0  0
  -37.1770  -21.8740    5.0680 C   0  0  0  0  0  0  0  0  0  0  0  0
  -36.7610  -20.5940    5.3810 C   0  0  0  0  0  0  0  0  0  0  0  0
  -37.3160  -19.9980    6.3980 O   0  0  0  0  0  0  0  0  0  0  0  0
  -37.7900  -18.4510    6.4300 P   0  0  0  0  0  0  0  0  0  0  0  0
  -36.8830  -17.7390    7.3520 O   0  0  0  0  0  1  0  0  0  0  0  0
  -39.2300  -18.4370    6.9850 O   0  0  0  0  0  1  0  0  0  0  0  0
  -37.7590  -17.7610    5.0490 O   0  0  0  0  0  0  0  0  0  0  0  0
  -33.9090  -22.2950   -0.9610 N   0  0  0  0  0  0  0  0  0  0  0  0
  -33.0540  -22.7860   -2.0410 C   0  0  2  0  0  0  0  0  0  0  0  0
  -32.2610  -24.0590   -1.7200 C   0  0  0  0  0  0  0  0  0  0  0  0
  -31.9660  -24.8290   -2.6420 O   0  0  0  0  0  0  0  0  0  0  0  0
  -32.0870  -21.6600   -2.3970 C   0  0  0  0  0  0  0  0  0  0  0  0
  -31.0720  -21.9390   -3.5040 C   0  0  0  0  0  0  0  0  0  0  0  0
  -31.3410  -21.6120   -4.8300 C   0  0  0  0  0  0  0  0  0  0  0  0
  -29.8190  -22.4560   -3.2080 C   0  0  0  0  0  0  0  0  0  0  0  0
  -30.4070  -21.8330   -5.8260 C   0  0  0  0  0  0  0  0  0  0  0  0
  -28.8780  -22.6740   -4.1880 C   0  0  0  0  0  0  0  0  0  0  0  0
  -29.1750  -22.3630   -5.5020 C   0  0  0  0  0  0  0  0  0  0  0  0
  -28.2730  -22.5650   -6.4300 O   0  0  0  0  0  0  0  0  0  0  0  0
  -27.7570  -24.0680   -6.7400 P   0  0  0  0  0  0  0  0  0  0  0  0
  -26.9790  -24.0180   -7.9990 O   0  0  0  0  0  1  0  0  0  0  0  0
  -29.0210  -24.9140   -6.8510 O   0  0  0  0  0  1  0  0  0  0  0  0
  -26.8390  -24.5860   -5.6010 O   0  0  0  0  0  0  0  0  0  0  0  0
  -31.9200  -24.2700   -0.4450 N   0  0  0  0  0  0  0  0  0  0  0  0
  -31.1150  -25.4230   -0.0260 C   0  0  2  0  0  0  0  0  0  0  0  0
  -31.9010  -26.4270    0.8090 C   0  0  0  0  0  0  0  0  0  0  0  0
  -31.3140  -27.1550    1.6100 O   0  0  0  0  0  0  0  0  0  0  0  0
  -29.8730  -24.9690    0.7510 C   0  0  0  0  0  0  0  0  0  0  0  0
  -30.2170  -24.3840    2.1120 C   0  0  0  0  0  0  0  0  0  0  0  0
  -31.3070  -23.8420    2.3040 O   0  0  0  0  0  0  0  0  0  0  0  0
  -29.2880  -24.5050    3.0740 N   0  0  0  0  0  0  0  0  0  0  0  0
  -33.2200  -26.4650    0.6260 N   0  0  0  0  0  0  0  0  0  0  0  0
  -34.0810  -27.4320    1.3230 C   0  0  2  0  0  0  0  0  0  0  0  0
  -33.7580  -28.8890    0.9620 C   0  0  0  0  0  0  0  0  0  0  0  0
  -33.0190  -29.1560    0.0160 O   0  0  0  0  0  0  0  0  0  0  0  0
  -35.5560  -27.1520    1.0090 C   0  0  0  0  0  0  0  0  0  0  0  0
  -36.1870  -26.1380    1.9610 C   0  0  0  0  0  0  0  0  0  0  0  0
  -35.8280  -26.1240    3.1580 O   0  5  0  0  0  0  0  0  0  0  0  0
  -37.0540  -25.3640    1.5110 O   0  0  0  0  0  0  0  0  0  0  0  0
  -34.3200  -29.8250    1.7260 N   0  0  0  0  0  0  0  0  0  0  0  0
  -34.2760  -31.2470    1.3880 C   0  0  2  0  0  0  0  0  0  0  0  0
  -35.5540  -31.6430    0.6890 C   0  0  0  0  0  0  0  0  0  0  0  0
  -36.5520  -30.9270    0.7580 O   0  0  0  0  0  0  0  0  0  0  0  0
  -34.1810  -32.1080    2.6440 C   0  0  0  0  0  0  0  0  0  0  0  0
  -33.0240  -31.7740    3.5160 C   0  0  0  0  0  0  0  0  0  0  0  0
  -31.7350  -32.0150    3.0860 C   0  0  0  0  0  0  0  0  0  0  0  0
  -33.2250  -31.2050    4.7700 C   0  0  0  0  0  0  0  0  0  0  0  0
  -30.6620  -31.6850    3.8920 C   0  0  0  0  0  0  0  0  0  0  0  0
  -32.1630  -30.8770    5.5790 C   0  0  0  0  0  0  0  0  0  0  0  0
  -30.8810  -31.1170    5.1430 C   0  0  0  0  0  0  0  0  0  0  0  0
  -35.5320  -32.7940    0.0080 N   0  0  0  0  0  0  0  0  0  0  0  0
  -36.8080  -33.4410   -0.3030 C   0  0  2  0  0  0  0  0  0  0  0  0
  -37.5030  -33.7960    1.0010 C   0  0  0  0  0  0  0  0  0  0  0  0
  -36.7920  -34.2850    1.8900 O   0  5  0  0  0  0  0  0  0  0  0  0
  -36.3900  -34.7300   -1.0320 C   0  0  0  0  0  0  0  0  0  0  0  0
  -34.9170  -34.8920   -0.7840 C   0  0  0  0  0  0  0  0  0  0  0  0
  -34.3790  -33.5000   -0.5790 C   0  0  0  0  0  0  0  0  0  0  0  0
  -42.0322  -18.7828    3.8295 H   0  0  0  0  0  0  0  0  0  0  0  0
  -42.0819  -19.4913    2.3445 H   0  0  0  0  0  0  0  0  0  0  0  0
  -40.6475  -18.9670    2.9587 H   0  0  0  0  0  0  0  0  0  0  0  0
  -40.6697  -20.4986    4.6665 H   0  0  0  0  0  0  0  0  0  0  0  0
  -42.9881  -20.6026    5.1753 H   0  0  0  0  0  0  0  0  0  0  0  0
  -42.4186  -22.2632    4.7949 H   0  0  0  0  0  0  0  0  0  0  0  0
  -45.5771  -20.7076    4.3097 H   0  0  0  0  0  0  0  0  0  0  0  0
  -44.8289  -22.2946    0.4263 H   0  0  0  0  0  0  0  0  0  0  0  0
  -46.6162  -21.3460    1.9893 H   0  0  0  0  0  0  0  0  0  0  0  0
  -40.6308  -20.5777    1.2867 H   0  0  0  0  0  0  0  0  0  0  0  0
  -39.4168  -23.3038    1.3773 H   0  0  0  0  0  0  0  0  0  0  0  0
  -39.3563  -22.5904   -1.2819 H   0  0  0  0  0  0  0  0  0  0  0  0
  -40.8481  -21.7731   -0.7047 H   0  0  0  0  0  0  0  0  0  0  0  0
  -41.8634  -23.7859   -0.0968 H   0  0  0  0  0  0  0  0  0  0  0  0
  -40.3060  -24.6810   -0.0919 H   0  0  0  0  0  0  0  0  0  0  0  0
  -41.2812  -25.9848   -3.2018 H   0  0  0  0  0  0  0  0  0  0  0  0
  -40.9676  -26.2890   -1.5258 H   0  0  0  0  0  0  0  0  0  0  0  0
  -37.3039  -23.6925    0.9179 H   0  0  0  0  0  0  0  0  0  0  0  0
  -35.5913  -21.2707    0.5738 H   0  0  0  0  0  0  0  0  0  0  0  0
  -33.9041  -22.3937    2.0219 H   0  0  0  0  0  0  0  0  0  0  0  0
  -35.0451  -23.7588    2.2695 H   0  0  0  0  0  0  0  0  0  0  0  0
  -34.4021  -20.1672    3.0067 H   0  0  0  0  0  0  0  0  0  0  0  0
  -36.9282  -23.5421    3.7572 H   0  0  0  0  0  0  0  0  0  0  0  0
  -35.4129  -18.9887    4.9179 H   0  0  0  0  0  0  0  0  0  0  0  0
  -37.9551  -22.3524    5.6517 H   0  0  0  0  0  0  0  0  0  0  0  0
  -33.8022  -21.3447   -0.6685 H   0  0  0  0  0  0  0  0  0  0  0  0
  -33.6930  -23.0025   -2.9098 H   0  0  0  0  0  0  0  0  0  0  0  0
  -31.5235  -21.4068   -1.4869 H   0  0  0  0  0  0  0  0  0  0  0  0
  -32.6880  -20.7932   -2.7092 H   0  0  0  0  0  0  0  0  0  0  0  0
  -32.2998  -21.1763   -5.0867 H   0  0  0  0  0  0  0  0  0  0  0  0
  -29.5752  -22.6942   -2.1790 H   0  0  0  0  0  0  0  0  0  0  0  0
  -30.6418  -21.5910   -6.8562 H   0  0  0  0  0  0  0  0  0  0  0  0
  -27.9093  -23.0872   -3.9312 H   0  0  0  0  0  0  0  0  0  0  0  0
  -32.2248  -23.6179    0.2491 H   0  0  0  0  0  0  0  0  0  0  0  0
  -30.7782  -25.9381   -0.9377 H   0  0  0  0  0  0  0  0  0  0  0  0
  -29.3483  -24.2033    0.1607 H   0  0  0  0  0  0  0  0  0  0  0  0
  -29.2121  -25.8361    0.8970 H   0  0  0  0  0  0  0  0  0  0  0  0
  -29.4633  -24.1377    3.9874 H   0  0  0  0  0  0  0  0  0  0  0  0
  -28.4208  -24.9624    2.8770 H   0  0  0  0  0  0  0  0  0  0  0  0
  -33.6388  -25.8138   -0.0069 H   0  0  0  0  0  0  0  0  0  0  0  0
  -33.9227  -27.3057    2.4042 H   0  0  0  0  0  0  0  0  0  0  0  0
  -36.1153  -28.0964    1.0820 H   0  0  0  0  0  0  0  0  0  0  0  0
  -35.6280  -26.7615   -0.0168 H   0  0  0  0  0  0  0  0  0  0  0  0
  -34.7900  -29.5441    2.5628 H   0  0  0  0  0  0  0  0  0  0  0  0
  -33.4112  -31.4392    0.7360 H   0  0  0  0  0  0  0  0  0  0  0  0
  -34.0909  -33.1604    2.3368 H   0  0  0  0  0  0  0  0  0  0  0  0
  -35.1042  -31.9739    3.2268 H   0  0  0  0  0  0  0  0  0  0  0  0
  -31.5638  -32.4640    2.1143 H   0  0  0  0  0  0  0  0  0  0  0  0
  -34.2355  -31.0173    5.1145 H   0  0  0  0  0  0  0  0  0  0  0  0
  -29.6500  -31.8687    3.5496 H   0  0  0  0  0  0  0  0  0  0  0  0
  -32.3347  -30.4328    6.5528 H   0  0  0  0  0  0  0  0  0  0  0  0
  -30.0385  -30.8628    5.7760 H   0  0  0  0  0  0  0  0  0  0  0  0
  -37.4516  -32.8061   -0.9296 H   0  0  0  0  0  0  0  0  0  0  0  0
  -38.7368  -33.6033    1.1691 O   0  0  0  0  0  0  0  0  0  0  0  0
  -36.5876  -34.6396   -2.1103 H   0  0  0  0  0  0  0  0  0  0  0  0
  -36.9417  -35.5921   -0.6291 H   0  0  0  0  0  0  0  0  0  0  0  0
  -34.4326  -35.3659   -1.6505 H   0  0  0  0  0  0  0  0  0  0  0  0
  -34.7448  -35.5050    0.1130 H   0  0  0  0  0  0  0  0  0  0  0  0
  -33.5219  -33.5030    0.1105 H   0  0  0  0  0  0  0  0  0  0  0  0
  -34.0793  -33.0453   -1.5347 H   0  0  0  0  0  0  0  0  0  0  0  0
  1  2  1  0  0  0  0
  1 86  1  0  0  0  0
  1 87  1  0  0  0  0
  1 88  1  0  0  0  0
  2  3  1  0  0  0  0
  2  5  1  0  0  0  0
  2 89  1  1  0  0  0
  3  4  2  0  0  0  0
  3 11  1  0  0  0  0
  5  6  1  0  0  0  0
  5 90  1  0  0  0  0
  5 91  1  0  0  0  0
  6  7  1  0  0  0  0
  6  8  2  0  0  0  0
  7  9  2  0  0  0  0
  8 10  1  0  0  0  0
  8 92  1  0  0  0  0
  9 10  1  0  0  0  0
  9 93  1  0  0  0  0
 10 94  1  0  0  0  0
 11 12  1  0  0  0  0
 11 95  1  0  0  0  0
 12 13  1  0  0  0  0
 12 15  1  0  0  0  0
 12 96  1  1  0  0  0
 13 14  2  0  0  0  0
 13 20  1  0  0  0  0
 15 16  1  0  0  0  0
 15 97  1  0  0  0  0
 15 98  1  0  0  0  0
 16 17  1  0  0  0  0
 16 99  1  0  0  0  0
 16100  1  0  0  0  0
 17 18  2  0  0  0  0
 17 19  1  0  0  0  0
 19101  1  0  0  0  0
 19102  1  0  0  0  0
 20 21  1  0  0  0  0
 20103  1  0  0  0  0
 21 22  1  0  0  0  0
 21 24  1  0  0  0  0
 21104  1  6  0  0  0
 22 23  2  0  0  0  0
 22 36  1  0  0  0  0
 24 25  1  0  0  0  0
 24105  1  0  0  0  0
 24106  1  0  0  0  0
 25 26  2  0  0  0  0
 25 27  1  0  0  0  0
 26 28  1  0  0  0  0
 26107  1  0  0  0  0
 27 29  2  0  0  0  0
 27108  1  0  0  0  0
 28 30  2  0  0  0  0
 28109  1  0  0  0  0
 29 30  1  0  0  0  0
 29110  1  0  0  0  0
 30 31  1  0  0  0  0
 31 32  1  0  0  0  0
 32 33  1  0  0  0  0
 32 34  1  0  0  0  0
 32 35  2  0  0  0  0
 36 37  1  0  0  0  0
 36111  1  0  0  0  0
 37 38  1  0  0  0  0
 37 40  1  0  0  0  0
 37112  1  6  0  0  0
 38 39  2  0  0  0  0
 38 52  1  0  0  0  0
 40 41  1  0  0  0  0
 40113  1  0  0  0  0
 40114  1  0  0  0  0
 41 42  2  0  0  0  0
 41 43  1  0  0  0  0
 42 44  1  0  0  0  0
 42115  1  0  0  0  0
 43 45  2  0  0  0  0
 43116  1  0  0  0  0
 44 46  2  0  0  0  0
 44117  1  0  0  0  0
 45 46  1  0  0  0  0
 45118  1  0  0  0  0
 46 47  1  0  0  0  0
 47 48  1  0  0  0  0
 48 49  1  0  0  0  0
 48 50  1  0  0  0  0
 48 51  2  0  0  0  0
 52 53  1  0  0  0  0
 52119  1  0  0  0  0
 53 54  1  0  0  0  0
 53 56  1  0  0  0  0
 53120  1  6  0  0  0
 54 55  2  0  0  0  0
 54 60  1  0  0  0  0
 56 57  1  0  0  0  0
 56121  1  0  0  0  0
 56122  1  0  0  0  0
 57 58  2  0  0  0  0
 57 59  1  0  0  0  0
 59123  1  0  0  0  0
 59124  1  0  0  0  0
 60 61  1  0  0  0  0
 60125  1  0  0  0  0
 61 62  1  0  0  0  0
 61 64  1  0  0  0  0
 61126  1  1  0  0  0
 62 63  2  0  0  0  0
 62 68  1  0  0  0  0
 64 65  1  0  0  0  0
 64127  1  0  0  0  0
 64128  1  0  0  0  0
 65 66  1  0  0  0  0
 65 67  2  0  0  0  0
 68 69  1  0  0  0  0
 68129  1  0  0  0  0
 69 70  1  0  0  0  0
 69 72  1  0  0  0  0
 69130  1  6  0  0  0
 70 71  2  0  0  0  0
 70 79  1  0  0  0  0
 72 73  1  0  0  0  0
 72131  1  0  0  0  0
 72132  1  0  0  0  0
 73 74  2  0  0  0  0
 73 75  1  0  0  0  0
 74 76  1  0  0  0  0
 74133  1  0  0  0  0
 75 77  2  0  0  0  0
 75134  1  0  0  0  0
 76 78  2  0  0  0  0
 76135  1  0  0  0  0
 77 78  1  0  0  0  0
 77136  1  0  0  0  0
 78137  1  0  0  0  0
 79 80  1  0  0  0  0
 79 85  1  0  0  0  0
 80 81  1  0  0  0  0
 80 83  1  0  0  0  0
 80138  1  6  0  0  0
 81 82  1  0  0  0  0
 81139  2  0  0  0  0
 83 84  1  0  0  0  0
 83140  1  0  0  0  0
 83141  1  0  0  0  0
 84 85  1  0  0  0  0
 84142  1  0  0  0  0
 84143  1  0  0  0  0
 85144  1  0  0  0  0
 85145  1  0  0  0  0
M  CHG  3   1   1  66  -1  82  -1
M  END
