4jnm_ligand
 OpenBabel08222323353D

 45 47  0  0  0  0  0  0  0  0999 V2000
   14.4820    4.8960   -4.4990 C   0  0  0  0  0  0  0  0  0  0  0  0
   13.8160    5.2090   -5.6690 C   0  0  0  0  0  0  0  0  0  0  0  0
   14.5250    5.3850   -6.8420 C   0  0  0  0  0  0  0  0  0  0  0  0
   14.1080    5.9200   -1.8810 C   0  0  0  0  0  0  0  0  0  0  0  0
   14.9720    7.8630   -0.0970 C   0  0  0  0  0  0  0  0  0  0  0  0
   15.1580    5.6520   -1.0230 C   0  0  0  0  0  0  0  0  0  0  0  0
   14.7060    9.7080    1.5000 C   0  0  0  0  0  0  0  0  0  0  0  0
   14.5880   11.5080    3.1530 C   0  0  0  0  0  0  0  0  0  0  0  0
   14.7360   11.1190    4.6010 C   0  0  0  0  0  0  0  0  0  0  0  0
   15.8900   10.4680    5.0290 C   0  0  0  0  0  0  0  0  0  0  0  0
   14.9540   10.4250    7.2270 C   0  0  0  0  0  0  0  0  0  0  0  0
   13.7370   11.3900    5.5130 C   0  0  0  0  0  0  0  0  0  0  0  0
   15.9010    5.2470   -6.8440 C   0  0  0  0  0  0  0  0  0  0  0  0
   16.5680    4.9330   -5.6750 C   0  0  0  0  0  0  0  0  0  0  0  0
   15.8580    4.7580   -4.5020 C   0  0  0  0  0  0  0  0  0  0  0  0
   13.5710    4.6750   -3.0070 S   0  0  0  0  0  0  0  0  0  0  0  0
   12.2170    4.9590   -3.3290 O   0  0  0  0  0  0  0  0  0  0  0  0
   13.9940    3.4430   -2.4410 O   0  0  0  0  0  0  0  0  0  0  0  0
   13.4890    7.1550   -1.8510 C   0  0  0  0  0  0  0  0  0  0  0  0
   13.9180    8.1270   -0.9660 C   0  0  0  0  0  0  0  0  0  0  0  0
   15.5880    6.6180   -0.1360 C   0  0  0  0  0  0  0  0  0  0  0  0
   15.4550    8.8020    0.8290 N   0  0  0  0  0  0  0  0  0  0  0  0
   13.5020    9.8190    1.3420 O   0  0  0  0  0  0  0  0  0  0  0  0
   15.3330   10.5170    2.3760 N   0  0  0  0  0  0  0  0  0  0  0  0
   16.0010   10.1160    6.3620 C   0  0  0  0  0  0  0  0  0  0  0  0
   13.8710   11.0440    6.7800 N   0  0  0  0  0  0  0  0  0  0  0  0
   15.0460   10.0820    8.5710 N   0  0  0  0  0  0  0  0  0  0  0  0
   12.7373    5.3164   -5.6664 H   0  0  0  0  0  0  0  0  0  0  0  0
   14.0031    5.6310   -7.7597 H   0  0  0  0  0  0  0  0  0  0  0  0
   15.6437    4.6832   -1.0468 H   0  0  0  0  0  0  0  0  0  0  0  0
   15.0039   12.5125    2.9854 H   0  0  0  0  0  0  0  0  0  0  0  0
   13.5268   11.4975    2.8636 H   0  0  0  0  0  0  0  0  0  0  0  0
   16.6870   10.2412    4.3302 H   0  0  0  0  0  0  0  0  0  0  0  0
   12.8334   11.8918    5.1862 H   0  0  0  0  0  0  0  0  0  0  0  0
   16.4574    5.3853   -7.7640 H   0  0  0  0  0  0  0  0  0  0  0  0
   17.6465    4.8241   -5.6780 H   0  0  0  0  0  0  0  0  0  0  0  0
   16.3799    4.5125   -3.5842 H   0  0  0  0  0  0  0  0  0  0  0  0
   12.6645    7.3625   -2.5234 H   0  0  0  0  0  0  0  0  0  0  0  0
   13.4324    9.0960   -0.9492 H   0  0  0  0  0  0  0  0  0  0  0  0
   16.4121    6.4040    0.5350 H   0  0  0  0  0  0  0  0  0  0  0  0
   16.4388    8.8012    1.0084 H   0  0  0  0  0  0  0  0  0  0  0  0
   16.3226   10.4390    2.4970 H   0  0  0  0  0  0  0  0  0  0  0  0
   16.8868    9.6088    6.7269 H   0  0  0  0  0  0  0  0  0  0  0  0
   14.2742   10.3085    9.2143 H   0  0  0  0  0  0  0  0  0  0  0  0
   15.8860    9.6013    8.9235 H   0  0  0  0  0  0  0  0  0  0  0  0
  1  2  2  0  0  0  0
  1 15  1  0  0  0  0
  2  3  1  0  0  0  0
  2 28  1  0  0  0  0
  3 13  2  0  0  0  0
  3 29  1  0  0  0  0
  4 16  1  0  0  0  0
  4 19  1  0  0  0  0
  5 20  1  0  0  0  0
  5 21  2  0  0  0  0
  6  4  2  0  0  0  0
  6 30  1  0  0  0  0
  7 22  1  0  0  0  0
  7 23  2  0  0  0  0
  8  9  1  0  0  0  0
  8 24  1  0  0  0  0
  8 31  1  0  0  0  0
  8 32  1  0  0  0  0
  9 10  2  0  0  0  0
  9 12  1  0  0  0  0
 10 25  1  0  0  0  0
 10 33  1  0  0  0  0
 11 26  1  0  0  0  0
 11 27  1  0  0  0  0
 12 26  2  0  0  0  0
 12 34  1  0  0  0  0
 13 14  1  0  0  0  0
 13 35  1  0  0  0  0
 14 15  2  0  0  0  0
 14 36  1  0  0  0  0
 15 37  1  0  0  0  0
 16  1  1  0  0  0  0
 16 17  2  0  0  0  0
 16 18  2  0  0  0  0
 19 20  2  0  0  0  0
 19 38  1  0  0  0  0
 20 39  1  0  0  0  0
 21  6  1  0  0  0  0
 21 40  1  0  0  0  0
 22  5  1  0  0  0  0
 22 41  1  0  0  0  0
 24  7  1  0  0  0  0
 24 42  1  0  0  0  0
 25 11  2  0  0  0  0
 25 43  1  0  0  0  0
 27 44  1  0  0  0  0
 27 45  1  0  0  0  0
M  END
