4jog_ligand
 OpenBabel08222323353D

131131  0  0  1  0  0  0  0  0999 V2000
   13.8530   25.1560   82.2610 N   0  3  0  0  0  0  0  0  0  0  0  0
   13.5200   25.6870   80.9420 C   0  0  2  0  0  0  0  0  0  0  0  0
   14.1440   27.0630   80.7030 C   0  0  0  0  0  0  0  0  0  0  0  0
   14.6010   27.3640   79.5960 O   0  0  0  0  0  0  0  0  0  0  0  0
   12.0000   25.7470   80.7550 C   0  0  0  0  0  0  0  0  0  0  0  0
   11.6500   26.5190   79.6160 O   0  0  0  0  0  0  0  0  0  0  0  0
   14.1570   27.8950   81.7420 N   0  0  0  0  0  0  0  0  0  0  0  0
   14.7940   29.2040   81.6660 C   0  0  2  0  0  0  0  0  0  0  0  0
   16.2970   29.0370   81.4790 C   0  0  0  0  0  0  0  0  0  0  0  0
   16.9570   29.8760   80.8640 O   0  0  0  0  0  0  0  0  0  0  0  0
   14.5330   30.0080   82.9460 C   0  0  0  0  0  0  0  0  0  0  0  0
   13.1230   30.5740   83.0590 C   0  0  0  0  0  0  0  0  0  0  0  0
   12.8030   31.0160   84.4820 C   0  0  0  0  0  0  0  0  0  0  0  0
   13.5060   32.2330   84.8830 N   0  0  0  0  0  0  0  0  0  0  0  0
   13.0170   33.4660   84.7490 C   0  0  0  0  0  3  0  0  0  0  0  0
   11.8170   33.6660   84.2120 N   0  0  0  0  0  0  0  0  0  0  0  0
   13.7300   34.5060   85.1570 N   0  0  0  0  0  0  0  0  0  0  0  0
   16.8260   27.9470   82.0290 N   0  0  0  0  0  0  0  0  0  0  0  0
   18.2630   27.7260   82.0570 C   0  0  2  0  0  0  0  0  0  0  0  0
   18.6700   26.7330   80.9700 C   0  0  0  0  0  0  0  0  0  0  0  0
   18.1000   25.6480   80.8690 O   0  0  0  0  0  0  0  0  0  0  0  0
   18.7100   27.2140   83.4330 C   0  0  0  0  0  0  0  0  0  0  0  0
   20.2200   27.0890   83.4850 C   0  0  0  0  0  0  0  0  0  0  0  0
   18.2150   28.1510   84.5400 C   0  0  0  0  0  0  0  0  0  0  0  0
   19.6550   27.1100   80.1470 N   0  0  0  0  0  0  0  0  0  0  0  0
   20.0570   26.2910   78.9980 C   0  0  2  0  0  0  0  0  0  0  0  0
   20.8700   25.0500   79.3800 C   0  0  0  0  0  0  0  0  0  0  0  0
   21.5100   25.0140   80.4350 O   0  0  0  0  0  0  0  0  0  0  0  0
   20.9300   27.2510   78.1820 C   0  0  0  0  0  0  0  0  0  0  0  0
   21.5230   28.1570   79.2050 C   0  0  0  0  0  0  0  0  0  0  0  0
   20.4280   28.3610   80.2300 C   0  0  0  0  0  0  0  0  0  0  0  0
   20.8290   24.0560   78.4990 N   0  0  0  0  0  0  0  0  0  0  0  0
   21.6310   22.8450   78.6220 C   0  0  2  0  0  0  0  0  0  0  0  0
   22.4200   22.6740   77.3430 C   0  0  0  0  0  0  0  0  0  0  0  0
   21.8840   22.8770   76.2480 O   0  0  0  0  0  0  0  0  0  0  0  0
   20.7390   21.6200   78.8020 C   0  0  2  0  0  0  0  0  0  0  0  0
   19.9910   21.7680   80.0120 O   0  0  0  0  0  0  0  0  0  0  0  0
   21.5760   20.3330   78.8780 C   0  0  0  0  0  0  0  0  0  0  0  0
   23.6870   22.2850   77.4670 N   0  0  0  0  0  0  0  0  0  0  0  0
   24.5020   21.9690   76.2980 C   0  0  2  0  0  0  0  0  0  0  0  0
   25.1080   20.5880   76.4680 C   0  0  0  0  0  0  0  0  0  0  0  0
   25.5500   20.2280   77.5620 O   0  0  0  0  0  0  0  0  0  0  0  0
   25.6260   22.9910   76.1100 C   0  0  0  0  0  0  0  0  0  0  0  0
   25.1130   24.2680   75.7520 O   0  0  0  0  0  0  0  0  0  0  0  0
   25.1160   19.8210   75.3830 N   0  0  0  0  0  0  0  0  0  0  0  0
   25.7680   18.5170   75.3270 C   0  0  2  0  0  0  0  0  0  0  0  0
   27.2080   18.7630   74.8960 C   0  0  0  0  0  0  0  0  0  0  0  0
   27.4360   19.4140   73.8710 O   0  0  0  0  0  0  0  0  0  0  0  0
   25.0860   17.6050   74.2780 C   0  0  2  0  0  0  0  0  0  0  0  0
   23.6040   17.4160   74.6020 C   0  0  0  0  0  0  0  0  0  0  0  0
   25.7870   16.2650   74.2030 C   0  0  0  0  0  0  0  0  0  0  0  0
   22.7920   16.8310   73.4370 C   0  0  0  0  0  0  0  0  0  0  0  0
   28.1770   18.2620   75.6680 N   0  0  0  0  0  0  0  0  0  0  0  0
   29.5980   18.5230   75.4070 C   0  0  2  0  0  0  0  0  0  0  0  0
   30.5010   17.3040   75.6280 C   0  0  0  0  0  0  0  0  0  0  0  0
   30.0770   16.2430   76.1040 O   0  5  0  0  0  0  0  0  0  0  0  0
   30.1470   19.6970   76.2680 C   0  0  2  0  0  0  0  0  0  0  0  0
   30.0670   19.3830   77.7630 C   0  0  0  0  0  0  0  0  0  0  0  0
   29.4150   21.0050   75.9540 C   0  0  0  0  0  0  0  0  0  0  0  0
   30.7570   20.4430   78.6320 C   0  0  0  0  0  0  0  0  0  0  0  0
   31.6990   17.3680   75.3310 O   0  0  0  0  0  0  0  0  0  0  0  0
   13.4237   24.2514   82.3772 H   0  0  0  0  0  0  0  0  0  0  0  0
   13.5116   25.7837   82.9719 H   0  0  0  0  0  0  0  0  0  0  0  0
   14.8535   25.0662   82.3443 H   0  0  0  0  0  0  0  0  0  0  0  0
   13.9294   24.9973   80.1892 H   0  0  0  0  0  0  0  0  0  0  0  0
   11.5468   26.2011   81.6485 H   0  0  0  0  0  0  0  0  0  0  0  0
   11.6141   24.7249   80.6273 H   0  0  0  0  0  0  0  0  0  0  0  0
   10.7045   26.5380   79.5261 H   0  0  0  0  0  0  0  0  0  0  0  0
   13.7188   27.6150   82.5962 H   0  0  0  0  0  0  0  0  0  0  0  0
   14.3807   29.7525   80.8068 H   0  0  0  0  0  0  0  0  0  0  0  0
   15.2436   30.8471   82.9758 H   0  0  0  0  0  0  0  0  0  0  0  0
   14.7086   29.3480   83.8083 H   0  0  0  0  0  0  0  0  0  0  0  0
   12.4030   29.7994   82.7564 H   0  0  0  0  0  0  0  0  0  0  0  0
   13.0325   31.4410   82.3881 H   0  0  0  0  0  0  0  0  0  0  0  0
   13.0864   30.2065   85.1708 H   0  0  0  0  0  0  0  0  0  0  0  0
   11.7207   31.1981   84.5557 H   0  0  0  0  0  0  0  0  0  0  0  0
   14.4434   32.1311   85.2975 H   0  0  0  0  0  0  0  0  0  0  0  0
   11.4498   34.6233   84.1137 H   0  0  0  0  0  0  0  0  0  0  0  0
   11.2547   32.8636   83.8944 H   0  0  0  0  0  0  0  0  0  0  0  0
   14.6605   34.3607   85.5741 H   0  0  0  0  0  0  0  0  0  0  0  0
   13.3537   35.4596   85.0569 H   0  0  0  0  0  0  0  0  0  0  0  0
   16.2198   27.2622   82.4335 H   0  0  0  0  0  0  0  0  0  0  0  0
   18.7659   28.6846   81.8617 H   0  0  0  0  0  0  0  0  0  0  0  0
   18.2707   26.2187   83.5951 H   0  0  0  0  0  0  0  0  0  0  0  0
   20.5235   26.7214   84.4763 H   0  0  0  0  0  0  0  0  0  0  0  0
   20.6759   28.0735   83.3036 H   0  0  0  0  0  0  0  0  0  0  0  0
   20.5562   26.3813   82.7129 H   0  0  0  0  0  0  0  0  0  0  0  0
   17.1191   28.2315   84.4894 H   0  0  0  0  0  0  0  0  0  0  0  0
   18.6624   29.1468   84.4048 H   0  0  0  0  0  0  0  0  0  0  0  0
   18.5081   27.7473   85.5204 H   0  0  0  0  0  0  0  0  0  0  0  0
   19.1720   25.9763   78.4256 H   0  0  0  0  0  0  0  0  0  0  0  0
   20.3206   27.8186   77.4633 H   0  0  0  0  0  0  0  0  0  0  0  0
   21.7163   26.7021   77.6431 H   0  0  0  0  0  0  0  0  0  0  0  0
   21.8111   29.1166   78.7510 H   0  0  0  0  0  0  0  0  0  0  0  0
   22.4049   27.6914   79.6691 H   0  0  0  0  0  0  0  0  0  0  0  0
   20.8500   28.4983   81.2365 H   0  0  0  0  0  0  0  0  0  0  0  0
   19.8032   29.2290   79.9728 H   0  0  0  0  0  0  0  0  0  0  0  0
   20.2175   24.1431   77.7125 H   0  0  0  0  0  0  0  0  0  0  0  0
   22.3126   22.9364   79.4805 H   0  0  0  0  0  0  0  0  0  0  0  0
   20.0478   21.5488   77.9493 H   0  0  0  0  0  0  0  0  0  0  0  0
   19.4560   22.5512   79.9585 H   0  0  0  0  0  0  0  0  0  0  0  0
   20.9083   19.4685   79.0075 H   0  0  0  0  0  0  0  0  0  0  0  0
   22.2662   20.3943   79.7323 H   0  0  0  0  0  0  0  0  0  0  0  0
   22.1525   20.2151   77.9486 H   0  0  0  0  0  0  0  0  0  0  0  0
   24.0886   22.2077   78.3795 H   0  0  0  0  0  0  0  0  0  0  0  0
   23.8604   21.9770   75.4045 H   0  0  0  0  0  0  0  0  0  0  0  0
   26.2991   22.6400   75.3140 H   0  0  0  0  0  0  0  0  0  0  0  0
   26.1876   23.0823   77.0514 H   0  0  0  0  0  0  0  0  0  0  0  0
   24.5340   24.5791   76.4380 H   0  0  0  0  0  0  0  0  0  0  0  0
   24.6513   20.1546   74.5628 H   0  0  0  0  0  0  0  0  0  0  0  0
   25.7370   18.0352   76.3154 H   0  0  0  0  0  0  0  0  0  0  0  0
   25.1646   18.0920   73.2948 H   0  0  0  0  0  0  0  0  0  0  0  0
   23.1778   18.3950   74.8664 H   0  0  0  0  0  0  0  0  0  0  0  0
   23.5196   16.7350   75.4617 H   0  0  0  0  0  0  0  0  0  0  0  0
   26.8506   16.4202   73.9694 H   0  0  0  0  0  0  0  0  0  0  0  0
   25.3242   15.6526   73.4151 H   0  0  0  0  0  0  0  0  0  0  0  0
   25.6956   15.7487   75.1700 H   0  0  0  0  0  0  0  0  0  0  0  0
   21.7403   16.7234   73.7408 H   0  0  0  0  0  0  0  0  0  0  0  0
   23.1979   15.8453   73.1656 H   0  0  0  0  0  0  0  0  0  0  0  0
   22.8561   17.5053   72.5703 H   0  0  0  0  0  0  0  0  0  0  0  0
   27.9259   17.6905   76.4492 H   0  0  0  0  0  0  0  0  0  0  0  0
   29.6804   18.8112   74.3487 H   0  0  0  0  0  0  0  0  0  0  0  0
   31.2074   19.8333   76.0092 H   0  0  0  0  0  0  0  0  0  0  0  0
   30.5500   18.4115   77.9443 H   0  0  0  0  0  0  0  0  0  0  0  0
   29.0077   19.3257   78.0537 H   0  0  0  0  0  0  0  0  0  0  0  0
   29.4833   21.2137   74.8762 H   0  0  0  0  0  0  0  0  0  0  0  0
   29.8781   21.8287   76.5170 H   0  0  0  0  0  0  0  0  0  0  0  0
   28.3578   20.9121   76.2432 H   0  0  0  0  0  0  0  0  0  0  0  0
   30.6666   20.1636   79.6921 H   0  0  0  0  0  0  0  0  0  0  0  0
   30.2783   21.4197   78.4682 H   0  0  0  0  0  0  0  0  0  0  0  0
   31.8207   20.5055   78.3587 H   0  0  0  0  0  0  0  0  0  0  0  0
  1  2  1  0  0  0  0
  1 62  1  0  0  0  0
  1 63  1  0  0  0  0
  1 64  1  0  0  0  0
  2  3  1  0  0  0  0
  2  5  1  0  0  0  0
  2 65  1  6  0  0  0
  3  4  2  0  0  0  0
  3  7  1  0  0  0  0
  5  6  1  0  0  0  0
  5 66  1  0  0  0  0
  5 67  1  0  0  0  0
  6 68  1  0  0  0  0
  7  8  1  0  0  0  0
  7 69  1  0  0  0  0
  8  9  1  0  0  0  0
  8 11  1  0  0  0  0
  8 70  1  6  0  0  0
  9 10  2  0  0  0  0
  9 18  1  0  0  0  0
 11 12  1  0  0  0  0
 11 71  1  0  0  0  0
 11 72  1  0  0  0  0
 12 13  1  0  0  0  0
 12 73  1  0  0  0  0
 12 74  1  0  0  0  0
 13 14  1  0  0  0  0
 13 75  1  0  0  0  0
 13 76  1  0  0  0  0
 14 15  1  0  0  0  0
 14 77  1  0  0  0  0
 15 16  1  0  0  0  0
 15 17  1  0  0  0  0
 16 78  1  0  0  0  0
 16 79  1  0  0  0  0
 17 80  1  0  0  0  0
 17 81  1  0  0  0  0
 18 19  1  0  0  0  0
 18 82  1  0  0  0  0
 19 20  1  0  0  0  0
 19 22  1  0  0  0  0
 19 83  1  6  0  0  0
 20 21  2  0  0  0  0
 20 25  1  0  0  0  0
 22 23  1  0  0  0  0
 22 24  1  0  0  0  0
 22 84  1  0  0  0  0
 23 85  1  0  0  0  0
 23 86  1  0  0  0  0
 23 87  1  0  0  0  0
 24 88  1  0  0  0  0
 24 89  1  0  0  0  0
 24 90  1  0  0  0  0
 25 26  1  0  0  0  0
 25 31  1  0  0  0  0
 26 27  1  0  0  0  0
 26 29  1  0  0  0  0
 26 91  1  6  0  0  0
 27 28  2  0  0  0  0
 27 32  1  0  0  0  0
 29 30  1  0  0  0  0
 29 92  1  0  0  0  0
 29 93  1  0  0  0  0
 30 31  1  0  0  0  0
 30 94  1  0  0  0  0
 30 95  1  0  0  0  0
 31 96  1  0  0  0  0
 31 97  1  0  0  0  0
 32 33  1  0  0  0  0
 32 98  1  0  0  0  0
 33 34  1  0  0  0  0
 33 36  1  0  0  0  0
 33 99  1  1  0  0  0
 34 35  2  0  0  0  0
 34 39  1  0  0  0  0
 36 37  1  0  0  0  0
 36 38  1  0  0  0  0
 36100  1  6  0  0  0
 37101  1  0  0  0  0
 38102  1  0  0  0  0
 38103  1  0  0  0  0
 38104  1  0  0  0  0
 39 40  1  0  0  0  0
 39105  1  0  0  0  0
 40 41  1  0  0  0  0
 40 43  1  0  0  0  0
 40106  1  6  0  0  0
 41 42  2  0  0  0  0
 41 45  1  0  0  0  0
 43 44  1  0  0  0  0
 43107  1  0  0  0  0
 43108  1  0  0  0  0
 44109  1  0  0  0  0
 45 46  1  0  0  0  0
 45110  1  0  0  0  0
 46 47  1  0  0  0  0
 46 49  1  0  0  0  0
 46111  1  1  0  0  0
 47 48  2  0  0  0  0
 47 53  1  0  0  0  0
 49 50  1  0  0  0  0
 49 51  1  0  0  0  0
 49112  1  6  0  0  0
 50 52  1  0  0  0  0
 50113  1  0  0  0  0
 50114  1  0  0  0  0
 51115  1  0  0  0  0
 51116  1  0  0  0  0
 51117  1  0  0  0  0
 52118  1  0  0  0  0
 52119  1  0  0  0  0
 52120  1  0  0  0  0
 53 54  1  0  0  0  0
 53121  1  0  0  0  0
 54 55  1  0  0  0  0
 54 57  1  0  0  0  0
 54122  1  6  0  0  0
 55 56  1  0  0  0  0
 55 61  2  0  0  0  0
 57 58  1  0  0  0  0
 57 59  1  0  0  0  0
 57123  1  6  0  0  0
 58 60  1  0  0  0  0
 58124  1  0  0  0  0
 58125  1  0  0  0  0
 59126  1  0  0  0  0
 59127  1  0  0  0  0
 59128  1  0  0  0  0
 60129  1  0  0  0  0
 60130  1  0  0  0  0
 60131  1  0  0  0  0
M  CHG  2   1   1  56  -1
M  END
