4joo_ligand
 OpenBabel08222323353D

 37 39  0  0  1  0  0  0  0  0999 V2000
   25.0700   14.0570    8.7330 C   0  0  0  0  0  0  0  0  0  0  0  0
   25.7590   12.8500    8.4570 C   0  0  0  0  0  0  0  0  0  0  0  0
   27.1330   12.7480    8.7560 C   0  0  0  0  0  0  0  0  0  0  0  0
   27.8280   13.8320    9.3390 C   0  0  0  0  0  0  0  0  0  0  0  0
   27.1410   15.0340    9.6220 C   0  0  0  0  0  0  0  0  0  0  0  0
   25.7620   15.1400    9.3190 C   0  0  0  0  0  0  0  0  0  0  0  0
   23.5820   14.1840    8.3890 C   0  0  2  0  0  0  0  0  0  0  0  0
   22.9810   12.9320    7.7120 C   0  0  0  0  0  0  0  0  0  0  0  0
   23.6850   11.6130    8.1110 C   0  0  0  0  0  0  0  0  0  0  0  0
   25.0890   11.7810    7.8950 O   0  0  0  0  0  0  0  0  0  0  0  0
   23.4210   15.4070    7.4710 C   0  0  0  0  0  0  0  0  0  0  0  0
   22.6260   16.3370    8.1220 N   0  0  0  0  0  0  0  0  0  0  0  0
   22.2650   15.8240    9.3570 C   0  0  2  0  0  3  0  0  0  0  0  0
   22.7700   14.5970    9.5480 N   0  0  0  0  0  0  0  0  0  0  0  0
   23.9210   15.5760    6.3590 O   0  0  0  0  0  0  0  0  0  0  0  0
   21.4910   16.4480   10.2550 N   0  0  0  0  0  0  0  0  0  0  0  0
   22.2500   17.6520    7.5800 C   0  0  0  0  0  0  0  0  0  0  0  0
   28.0570   16.4980   10.4030 Br  0  0  0  0  0  0  0  0  0  0  0  0
   23.3730   11.2440    9.5880 C   0  0  0  0  0  0  0  0  0  0  0  0
   23.2330   10.4600    7.1940 C   0  0  0  0  0  0  0  0  0  0  0  0
   27.6624   11.8279    8.5363 H   0  0  0  0  0  0  0  0  0  0  0  0
   28.8837   13.7416    9.5681 H   0  0  0  0  0  0  0  0  0  0  0  0
   25.2328   16.0602    9.5386 H   0  0  0  0  0  0  0  0  0  0  0  0
   23.0624   13.0534    6.6218 H   0  0  0  0  0  0  0  0  0  0  0  0
   21.9204   12.8592    7.9947 H   0  0  0  0  0  0  0  0  0  0  0  0
   22.6125   14.0224   10.3882 H   0  0  0  0  0  0  0  0  0  0  0  0
   21.1296   17.3918   10.0560 H   0  0  0  0  0  0  0  0  0  0  0  0
   21.2573   15.9840   11.1444 H   0  0  0  0  0  0  0  0  0  0  0  0
   22.6871   17.7742    6.5780 H   0  0  0  0  0  0  0  0  0  0  0  0
   22.6276   18.4438    8.2437 H   0  0  0  0  0  0  0  0  0  0  0  0
   21.1542   17.7213    7.5129 H   0  0  0  0  0  0  0  0  0  0  0  0
   23.8837   10.3048    9.8470 H   0  0  0  0  0  0  0  0  0  0  0  0
   22.2875   11.1176    9.7129 H   0  0  0  0  0  0  0  0  0  0  0  0
   23.7271   12.0483   10.2496 H   0  0  0  0  0  0  0  0  0  0  0  0
   23.7433    9.5324    7.4926 H   0  0  0  0  0  0  0  0  0  0  0  0
   23.4881   10.6993    6.1511 H   0  0  0  0  0  0  0  0  0  0  0  0
   22.1450   10.3251    7.2837 H   0  0  0  0  0  0  0  0  0  0  0  0
  1  2  2  0  0  0  0
  1  6  1  0  0  0  0
  2  3  1  0  0  0  0
  2 10  1  0  0  0  0
  3  4  2  0  0  0  0
  3 21  1  0  0  0  0
  4  5  1  0  0  0  0
  4 22  1  0  0  0  0
  5  6  2  0  0  0  0
  5 18  1  0  0  0  0
  6 23  1  0  0  0  0
  7  1  1  1  0  0  0
  7  8  1  0  0  0  0
  7 11  1  0  0  0  0
  7 14  1  0  0  0  0
  8  9  1  0  0  0  0
  8 24  1  0  0  0  0
  8 25  1  0  0  0  0
  9 10  1  0  0  0  0
  9 19  1  0  0  0  0
  9 20  1  0  0  0  0
 11 12  1  0  0  0  0
 11 15  2  0  0  0  0
 12 13  1  0  0  0  0
 12 17  1  0  0  0  0
 13 14  1  0  0  0  0
 13 16  1  6  0  0  0
 14 26  1  0  0  0  0
 16 27  1  0  0  0  0
 16 28  1  0  0  0  0
 17 29  1  0  0  0  0
 17 30  1  0  0  0  0
 17 31  1  0  0  0  0
 19 32  1  0  0  0  0
 19 33  1  0  0  0  0
 19 34  1  0  0  0  0
 20 35  1  0  0  0  0
 20 36  1  0  0  0  0
 20 37  1  0  0  0  0
M  END
