4jp9_ligand
 OpenBabel08222323353D

 47 50  0  0  1  0  0  0  0  0999 V2000
   27.0420   15.4980    9.4360 C   0  0  0  0  0  0  0  0  0  0  0  0
   27.7630   14.2880    9.2620 C   0  0  0  0  0  0  0  0  0  0  0  0
   27.1010   13.1180    8.8140 C   0  0  0  0  0  0  0  0  0  0  0  0
   25.7150   13.1520    8.5350 C   0  0  0  0  0  0  0  0  0  0  0  0
   24.9890   14.3580    8.7100 C   0  0  0  0  0  0  0  0  0  0  0  0
   25.6520   15.5280    9.1550 C   0  0  0  0  0  0  0  0  0  0  0  0
   25.0880   12.0020    8.1080 O   0  0  0  0  0  0  0  0  0  0  0  0
   23.6700   11.8330    8.2050 C   0  0  0  0  0  0  0  0  0  0  0  0
   22.9730   13.1160    7.7050 C   0  0  0  0  0  0  0  0  0  0  0  0
   23.4960   14.4050    8.3800 C   0  0  2  0  0  0  0  0  0  0  0  0
   27.6960   16.6790    9.8590 C   0  0  0  0  0  0  0  0  0  0  0  0
   23.2920   10.6440    7.3000 C   0  0  0  0  0  0  0  0  0  0  0  0
   23.2920   11.5200    9.6740 C   0  0  0  0  0  0  0  0  0  0  0  0
   23.2490   15.6100    7.4590 C   0  0  0  0  0  0  0  0  0  0  0  0
   22.4430   16.4760    8.1070 N   0  0  0  0  0  0  0  0  0  0  0  0
   22.1420   15.9280    9.3200 C   0  0  1  0  0  3  0  0  0  0  0  0
   22.6900   14.7790    9.5310 N   0  0  0  0  0  0  0  0  0  0  0  0
   21.3320   16.6140   10.2000 N   0  0  0  0  0  0  0  0  0  0  0  0
   23.8040   15.7700    6.3670 O   0  0  0  0  0  0  0  0  0  0  0  0
   22.0060   17.7630    7.5660 C   0  0  0  0  0  0  0  0  0  0  0  0
   27.0300   17.6060   10.6970 C   0  0  0  0  0  0  0  0  0  0  0  0
   27.6840   18.8010   11.0830 C   0  0  0  0  0  0  0  0  0  0  0  0
   29.0030   19.0810   10.6400 C   0  0  0  0  0  0  0  0  0  0  0  0
   29.6680   18.1570    9.7970 C   0  0  0  0  0  0  0  0  0  0  0  0
   29.0130   16.9630    9.4040 C   0  0  0  0  0  0  0  0  0  0  0  0
   26.8560   19.9110   12.0980 Cl  0  0  0  0  0  0  0  0  0  0  0  0
   28.8259   14.2587    9.4730 H   0  0  0  0  0  0  0  0  0  0  0  0
   27.6572   12.1965    8.6851 H   0  0  0  0  0  0  0  0  0  0  0  0
   25.0952   16.4495    9.2812 H   0  0  0  0  0  0  0  0  0  0  0  0
   21.8955   13.0289    7.9087 H   0  0  0  0  0  0  0  0  0  0  0  0
   23.1355   13.2005    6.6204 H   0  0  0  0  0  0  0  0  0  0  0  0
   22.2054   10.4794    7.3458 H   0  0  0  0  0  0  0  0  0  0  0  0
   23.8147    9.7398    7.6452 H   0  0  0  0  0  0  0  0  0  0  0  0
   23.5861   10.8643    6.2632 H   0  0  0  0  0  0  0  0  0  0  0  0
   22.2026   11.3894    9.7524 H   0  0  0  0  0  0  0  0  0  0  0  0
   23.6089   12.3524   10.3195 H   0  0  0  0  0  0  0  0  0  0  0  0
   23.7959   10.5959    9.9934 H   0  0  0  0  0  0  0  0  0  0  0  0
   22.5742   14.2134   10.3840 H   0  0  0  0  0  0  0  0  0  0  0  0
   20.9421   17.5296    9.9343 H   0  0  0  0  0  0  0  0  0  0  0  0
   21.1168   16.2109   11.1231 H   0  0  0  0  0  0  0  0  0  0  0  0
   22.4292   17.9006    6.5600 H   0  0  0  0  0  0  0  0  0  0  0  0
   22.3525   18.5739    8.2236 H   0  0  0  0  0  0  0  0  0  0  0  0
   20.9077   17.7823    7.5075 H   0  0  0  0  0  0  0  0  0  0  0  0
   26.0229   17.4014   11.0418 H   0  0  0  0  0  0  0  0  0  0  0  0
   29.4982   19.9959   10.9447 H   0  0  0  0  0  0  0  0  0  0  0  0
   30.6753   18.3625    9.4533 H   0  0  0  0  0  0  0  0  0  0  0  0
   29.5198   16.2611    8.7517 H   0  0  0  0  0  0  0  0  0  0  0  0
  1  2  2  0  0  0  0
  1  6  1  0  0  0  0
  1 11  1  0  0  0  0
  2  3  1  0  0  0  0
  2 27  1  0  0  0  0
  3  4  2  0  0  0  0
  3 28  1  0  0  0  0
  4  5  1  0  0  0  0
  4  7  1  0  0  0  0
  5  6  2  0  0  0  0
  6 29  1  0  0  0  0
  7  8  1  0  0  0  0
  8  9  1  0  0  0  0
  8 12  1  0  0  0  0
  8 13  1  0  0  0  0
  9 10  1  0  0  0  0
  9 30  1  0  0  0  0
  9 31  1  0  0  0  0
 10  5  1  1  0  0  0
 10 14  1  0  0  0  0
 10 17  1  0  0  0  0
 11 21  2  0  0  0  0
 11 25  1  0  0  0  0
 12 32  1  0  0  0  0
 12 33  1  0  0  0  0
 12 34  1  0  0  0  0
 13 35  1  0  0  0  0
 13 36  1  0  0  0  0
 13 37  1  0  0  0  0
 14 15  1  0  0  0  0
 14 19  2  0  0  0  0
 15 16  1  0  0  0  0
 15 20  1  0  0  0  0
 16 17  1  0  0  0  0
 16 18  1  1  0  0  0
 17 38  1  0  0  0  0
 18 39  1  0  0  0  0
 18 40  1  0  0  0  0
 20 41  1  0  0  0  0
 20 42  1  0  0  0  0
 20 43  1  0  0  0  0
 21 22  1  0  0  0  0
 21 44  1  0  0  0  0
 22 23  2  0  0  0  0
 22 26  1  0  0  0  0
 23 24  1  0  0  0  0
 23 45  1  0  0  0  0
 24 25  2  0  0  0  0
 24 46  1  0  0  0  0
 25 47  1  0  0  0  0
M  END
