4jpe_ligand
 OpenBabel08222323353D

 47 50  0  0  1  0  0  0  0  0999 V2000
   26.9220   15.5280    9.4710 C   0  0  0  0  0  0  0  0  0  0  0  0
   27.6930   14.3620    9.1990 C   0  0  0  0  0  0  0  0  0  0  0  0
   27.0620   13.1950    8.6920 C   0  0  0  0  0  0  0  0  0  0  0  0
   25.6610   13.1670    8.4420 C   0  0  0  0  0  0  0  0  0  0  0  0
   24.8860   14.3290    8.7110 C   0  0  0  0  0  0  0  0  0  0  0  0
   25.5200   15.4950    9.2170 C   0  0  0  0  0  0  0  0  0  0  0  0
   24.9900   11.8980    7.9020 C   0  0  0  0  0  0  0  0  0  0  0  0
   23.4720   11.7820    8.1960 C   0  0  0  0  0  0  0  0  0  0  0  0
   22.7700   13.0920    7.7680 C   0  0  0  0  0  0  0  0  0  0  0  0
   23.3790   14.3520    8.4320 C   0  0  2  0  0  0  0  0  0  0  0  0
   27.5100   16.7270    9.9630 C   0  0  0  0  0  0  0  0  0  0  0  0
   23.0830   15.5720    7.5430 C   0  0  0  0  0  0  0  0  0  0  0  0
   22.2800   16.4100    8.2250 N   0  0  0  0  0  0  0  0  0  0  0  0
   22.0470   15.8540    9.4480 C   0  0  2  0  0  3  0  0  0  0  0  0
   22.6180   14.7120    9.6310 N   0  0  0  0  0  0  0  0  0  0  0  0
   23.5120   15.7300    6.3950 O   0  0  0  0  0  0  0  0  0  0  0  0
   21.7750   17.6870    7.7060 C   0  0  0  0  0  0  0  0  0  0  0  0
   21.2500   16.5310   10.3440 N   0  0  0  0  0  0  0  0  0  0  0  0
   28.7330   17.2280    9.4320 C   0  0  0  0  0  0  0  0  0  0  0  0
   29.2650   18.3750    9.8890 N   0  0  0  0  0  0  0  0  0  0  0  0
   28.5880   19.0290   10.8520 C   0  0  0  0  0  0  0  0  0  0  0  0
   27.4230   18.6560   11.4060 N   0  0  0  0  0  0  0  0  0  0  0  0
   26.8810   17.5100   10.9660 C   0  0  0  0  0  0  0  0  0  0  0  0
   22.8510   10.6230    7.3770 C   0  0  0  0  0  0  0  0  0  0  0  0
   23.2220   11.4870    9.7010 C   0  0  0  0  0  0  0  0  0  0  0  0
   28.7620   14.3652    9.3790 H   0  0  0  0  0  0  0  0  0  0  0  0
   27.6570   12.3112    8.4922 H   0  0  0  0  0  0  0  0  0  0  0  0
   24.9245   16.3790    9.4143 H   0  0  0  0  0  0  0  0  0  0  0  0
   25.4919   11.0289    8.3523 H   0  0  0  0  0  0  0  0  0  0  0  0
   25.1286   11.8769    6.8110 H   0  0  0  0  0  0  0  0  0  0  0  0
   21.7080   13.0276    8.0473 H   0  0  0  0  0  0  0  0  0  0  0  0
   22.8564   13.1951    6.6763 H   0  0  0  0  0  0  0  0  0  0  0  0
   22.5496   14.1423   10.4863 H   0  0  0  0  0  0  0  0  0  0  0  0
   22.1500   17.8412    6.6835 H   0  0  0  0  0  0  0  0  0  0  0  0
   22.1214   18.5078    8.3512 H   0  0  0  0  0  0  0  0  0  0  0  0
   20.6752   17.6689    7.6943 H   0  0  0  0  0  0  0  0  0  0  0  0
   20.8451   17.4424   10.0867 H   0  0  0  0  0  0  0  0  0  0  0  0
   21.0588   16.1259   11.2715 H   0  0  0  0  0  0  0  0  0  0  0  0
   29.2416   16.6772    8.6490 H   0  0  0  0  0  0  0  0  0  0  0  0
   29.0281   19.9500   11.2170 H   0  0  0  0  0  0  0  0  0  0  0  0
   25.9401   17.1741   11.3867 H   0  0  0  0  0  0  0  0  0  0  0  0
   23.3317    9.6751    7.6604 H   0  0  0  0  0  0  0  0  0  0  0  0
   23.0078   10.8071    6.3039 H   0  0  0  0  0  0  0  0  0  0  0  0
   21.7725   10.5637    7.5851 H   0  0  0  0  0  0  0  0  0  0  0  0
   23.6532   12.2955   10.3096 H   0  0  0  0  0  0  0  0  0  0  0  0
   23.6961   10.5319    9.9712 H   0  0  0  0  0  0  0  0  0  0  0  0
   22.1397   11.4249    9.8877 H   0  0  0  0  0  0  0  0  0  0  0  0
  1  2  2  0  0  0  0
  1  6  1  0  0  0  0
  1 11  1  0  0  0  0
  2  3  1  0  0  0  0
  2 26  1  0  0  0  0
  3  4  2  0  0  0  0
  3 27  1  0  0  0  0
  4  5  1  0  0  0  0
  4  7  1  0  0  0  0
  5  6  2  0  0  0  0
  6 28  1  0  0  0  0
  7  8  1  0  0  0  0
  7 29  1  0  0  0  0
  7 30  1  0  0  0  0
  8  9  1  0  0  0  0
  8 24  1  0  0  0  0
  8 25  1  0  0  0  0
  9 10  1  0  0  0  0
  9 31  1  0  0  0  0
  9 32  1  0  0  0  0
 10  5  1  1  0  0  0
 10 12  1  0  0  0  0
 10 15  1  0  0  0  0
 11 19  2  0  0  0  0
 11 23  1  0  0  0  0
 12 13  1  0  0  0  0
 12 16  2  0  0  0  0
 13 14  1  0  0  0  0
 13 17  1  0  0  0  0
 14 15  1  0  0  0  0
 14 18  1  6  0  0  0
 15 33  1  0  0  0  0
 17 34  1  0  0  0  0
 17 35  1  0  0  0  0
 17 36  1  0  0  0  0
 18 37  1  0  0  0  0
 18 38  1  0  0  0  0
 19 20  1  0  0  0  0
 19 39  1  0  0  0  0
 20 21  2  0  0  0  0
 21 22  1  0  0  0  0
 21 40  1  0  0  0  0
 22 23  2  0  0  0  0
 23 41  1  0  0  0  0
 24 42  1  0  0  0  0
 24 43  1  0  0  0  0
 24 44  1  0  0  0  0
 25 45  1  0  0  0  0
 25 46  1  0  0  0  0
 25 47  1  0  0  0  0
M  END
