4jql_ligand
 OpenBabel08222323353D

 81 82  0  0  1  0  0  0  0  0999 V2000
   36.0510    2.6890   54.9920 C   0  0  0  0  0  0  0  0  0  0  0  0
   35.6220    3.6320   54.0140 N   0  0  0  0  0  0  0  0  0  0  0  0
   36.8820    1.8830   54.6220 O   0  0  0  0  0  0  0  0  0  0  0  0
   35.5370    2.6770   56.3990 C   0  0  0  0  0  0  0  0  0  0  0  0
   38.5200    9.8190   60.2360 N   0  0  0  0  0  0  0  0  0  0  0  0
   37.0830    5.5800   59.9720 O   0  0  0  0  0  0  0  0  0  0  0  0
   35.6480    3.7930   57.2290 C   0  0  0  0  0  0  0  0  0  0  0  0
   39.3400    6.0360   60.6730 N   0  0  0  0  0  0  0  0  0  0  0  0
   37.0070    8.1680   59.3500 O   0  0  0  0  0  0  0  0  0  0  0  0
   35.1860    3.7900   58.6680 C   0  0  0  0  0  0  0  0  0  0  0  0
   36.3170    9.6770   60.8950 O   0  0  0  0  0  0  0  0  0  0  0  0
   34.8910    5.1980   59.1160 C   0  0  0  0  0  0  0  0  0  0  0  0
   30.2080    9.3360   58.0830 O   0  0  0  0  0  0  0  0  0  0  0  0
   36.1270    6.0370   59.0780 C   0  0  1  0  0  0  0  0  0  0  0  0
   29.9530    6.7190   59.2540 O   0  0  0  0  0  0  0  0  0  0  0  0
   35.8370    7.4530   59.4460 C   0  0  2  0  0  0  0  0  0  0  0  0
   38.7780    5.6210   58.5120 O   0  0  0  0  0  0  0  0  0  0  0  0
   34.8220    8.0760   58.5360 C   0  0  0  0  0  0  0  0  0  0  0  0
   34.2320    8.1620   53.2020 O   0  0  0  0  0  0  0  0  0  0  0  0
   33.6390    8.4990   59.1350 C   0  0  0  0  0  0  0  0  0  0  0  0
   31.1900    5.5730   56.9650 O   0  0  0  0  0  0  0  0  0  0  0  0
   32.5450    9.2560   58.4340 C   0  0  1  0  0  0  0  0  0  0  0  0
   31.1850    8.7340   58.8440 C   0  0  2  0  0  0  0  0  0  0  0  0
   31.0790    7.2340   58.6760 C   0  0  2  0  0  0  0  0  0  0  0  0
   31.0310    6.9270   57.2080 C   0  0  0  0  0  0  0  0  0  0  0  0
   29.0030    9.7390   58.6620 C   0  0  0  0  0  0  0  0  0  0  0  0
   31.1240    5.1400   55.6420 C   0  0  0  0  0  0  0  0  0  0  0  0
   32.4210    5.3950   54.9520 C   0  0  0  0  0  0  0  0  0  0  0  0
   32.7100    6.7390   54.3740 C   0  0  0  0  0  0  0  0  0  0  0  0
   33.9040    6.9530   53.7640 C   0  0  0  0  0  0  0  0  0  0  0  0
   34.9080    5.8680   53.6430 C   0  0  0  0  0  0  0  0  0  0  0  0
   34.6480    4.6530   54.1760 C   0  0  0  0  0  0  0  0  0  0  0  0
   33.3380    4.3920   54.8460 C   0  0  0  0  0  0  0  0  0  0  0  0
   34.9370    1.4130   56.9210 C   0  0  0  0  0  0  0  0  0  0  0  0
   38.4310    5.5340   59.6840 C   0  0  0  0  0  0  0  0  0  0  0  0
   37.2090    9.2530   60.1740 C   0  0  0  0  0  0  0  0  0  0  0  0
   35.1570    8.2560   57.0780 C   0  0  0  0  0  0  0  0  0  0  0  0
   32.6570   10.6910   58.8090 C   0  0  0  0  0  0  0  0  0  0  0  0
   29.7680    6.8480   60.6120 C   0  0  0  0  0  0  0  0  0  0  0  0
   34.9010    8.0330   51.9950 C   0  0  0  0  0  0  0  0  0  0  0  0
   36.0542    3.5680   53.1145 H   0  0  0  0  0  0  0  0  0  0  0  0
   38.6969   10.6072   60.8254 H   0  0  0  0  0  0  0  0  0  0  0  0
   39.2603    9.4268   59.6900 H   0  0  0  0  0  0  0  0  0  0  0  0
   36.0856    4.7039   56.8232 H   0  0  0  0  0  0  0  0  0  0  0  0
   40.3250    6.0197   60.5010 H   0  0  0  0  0  0  0  0  0  0  0  0
   38.9889    6.4024   61.5347 H   0  0  0  0  0  0  0  0  0  0  0  0
   35.9759    3.3632   59.3036 H   0  0  0  0  0  0  0  0  0  0  0  0
   34.2745    3.1807   58.7570 H   0  0  0  0  0  0  0  0  0  0  0  0
   34.5022    5.1751   60.1447 H   0  0  0  0  0  0  0  0  0  0  0  0
   34.1358    5.6381   58.4483 H   0  0  0  0  0  0  0  0  0  0  0  0
   36.5376    6.0029   58.0581 H   0  0  0  0  0  0  0  0  0  0  0  0
   35.4618    7.4874   60.4794 H   0  0  0  0  0  0  0  0  0  0  0  0
   33.4951    8.2645   60.1887 H   0  0  0  0  0  0  0  0  0  0  0  0
   32.6624    9.1463   57.3458 H   0  0  0  0  0  0  0  0  0  0  0  0
   31.0209    8.9820   59.9030 H   0  0  0  0  0  0  0  0  0  0  0  0
   31.9627    6.7603   59.1284 H   0  0  0  0  0  0  0  0  0  0  0  0
   30.0587    7.2499   56.8074 H   0  0  0  0  0  0  0  0  0  0  0  0
   31.8374    7.4777   56.7016 H   0  0  0  0  0  0  0  0  0  0  0  0
   28.3612   10.1945   57.8935 H   0  0  0  0  0  0  0  0  0  0  0  0
   29.2049   10.4748   59.4543 H   0  0  0  0  0  0  0  0  0  0  0  0
   28.4935    8.8652   59.0942 H   0  0  0  0  0  0  0  0  0  0  0  0
   30.3222    5.6839   55.1211 H   0  0  0  0  0  0  0  0  0  0  0  0
   30.9081    4.0616   55.6228 H   0  0  0  0  0  0  0  0  0  0  0  0
   31.9766    7.5345   54.4400 H   0  0  0  0  0  0  0  0  0  0  0  0
   35.8456    6.0483   53.1297 H   0  0  0  0  0  0  0  0  0  0  0  0
   33.1178    3.4089   55.2462 H   0  0  0  0  0  0  0  0  0  0  0  0
   34.9356    0.6523   56.1264 H   0  0  0  0  0  0  0  0  0  0  0  0
   33.9040    1.6047   57.2469 H   0  0  0  0  0  0  0  0  0  0  0  0
   35.5294    1.0509   57.7741 H   0  0  0  0  0  0  0  0  0  0  0  0
   34.3062    8.7242   56.5614 H   0  0  0  0  0  0  0  0  0  0  0  0
   35.3657    7.2752   56.6259 H   0  0  0  0  0  0  0  0  0  0  0  0
   36.0436    8.9001   56.9823 H   0  0  0  0  0  0  0  0  0  0  0  0
   33.6452   11.0716   58.5115 H   0  0  0  0  0  0  0  0  0  0  0  0
   32.5361   10.7961   59.8973 H   0  0  0  0  0  0  0  0  0  0  0  0
   31.8727   11.2665   58.2956 H   0  0  0  0  0  0  0  0  0  0  0  0
   28.8156    6.3782   60.8985 H   0  0  0  0  0  0  0  0  0  0  0  0
   29.7456    7.9148   60.8793 H   0  0  0  0  0  0  0  0  0  0  0  0
   30.5949    6.3541   61.1433 H   0  0  0  0  0  0  0  0  0  0  0  0
   35.1351    9.0314   51.5970 H   0  0  0  0  0  0  0  0  0  0  0  0
   34.2644    7.4929   51.2788 H   0  0  0  0  0  0  0  0  0  0  0  0
   35.8345    7.4725   52.1512 H   0  0  0  0  0  0  0  0  0  0  0  0
  1  2  1  0  0  0  0
  1  3  2  0  0  0  0
  2 32  1  0  0  0  0
  2 41  1  0  0  0  0
  4  1  1  0  0  0  0
  4 34  1  0  0  0  0
  5 42  1  0  0  0  0
  5 43  1  0  0  0  0
  6 35  1  0  0  0  0
  7  4  2  0  0  0  0
  7 44  1  0  0  0  0
  8 45  1  0  0  0  0
  8 46  1  0  0  0  0
  9 36  1  0  0  0  0
 10  7  1  0  0  0  0
 10 47  1  0  0  0  0
 10 48  1  0  0  0  0
 12 10  1  0  0  0  0
 12 49  1  0  0  0  0
 12 50  1  0  0  0  0
 13 26  1  0  0  0  0
 14  6  1  0  0  0  0
 14 12  1  0  0  0  0
 14 51  1  6  0  0  0
 15 39  1  0  0  0  0
 16  9  1  0  0  0  0
 16 14  1  0  0  0  0
 16 52  1  1  0  0  0
 18 16  1  0  0  0  0
 18 37  1  0  0  0  0
 19 40  1  0  0  0  0
 20 18  2  0  0  0  0
 20 53  1  0  0  0  0
 21 25  1  0  0  0  0
 22 20  1  0  0  0  0
 22 38  1  0  0  0  0
 22 54  1  6  0  0  0
 23 13  1  0  0  0  0
 23 22  1  0  0  0  0
 23 55  1  1  0  0  0
 24 15  1  0  0  0  0
 24 23  1  0  0  0  0
 24 56  1  1  0  0  0
 25 24  1  0  0  0  0
 25 57  1  0  0  0  0
 25 58  1  0  0  0  0
 26 59  1  0  0  0  0
 26 60  1  0  0  0  0
 26 61  1  0  0  0  0
 27 21  1  0  0  0  0
 27 62  1  0  0  0  0
 27 63  1  0  0  0  0
 28 27  1  0  0  0  0
 28 33  1  0  0  0  0
 29 28  2  0  0  0  0
 29 30  1  0  0  0  0
 29 64  1  0  0  0  0
 30 19  1  0  0  0  0
 30 31  2  0  0  0  0
 31 32  1  0  0  0  0
 31 65  1  0  0  0  0
 32 33  2  0  0  0  0
 33 66  1  0  0  0  0
 34 67  1  0  0  0  0
 34 68  1  0  0  0  0
 34 69  1  0  0  0  0
 35  8  1  0  0  0  0
 35 17  2  0  0  0  0
 36  5  1  0  0  0  0
 36 11  2  0  0  0  0
 37 70  1  0  0  0  0
 37 71  1  0  0  0  0
 37 72  1  0  0  0  0
 38 73  1  0  0  0  0
 38 74  1  0  0  0  0
 38 75  1  0  0  0  0
 39 76  1  0  0  0  0
 39 77  1  0  0  0  0
 39 78  1  0  0  0  0
 40 79  1  0  0  0  0
 40 80  1  0  0  0  0
 40 81  1  0  0  0  0
M  END
