4jr5_ligand
 OpenBabel08222323353D

 48 50  0  0  0  0  0  0  0  0999 V2000
   13.8910   11.2630    6.1310 C   0  0  0  0  0  0  0  0  0  0  0  0
   14.9700   10.2990    7.9430 C   0  0  0  0  0  0  0  0  0  0  0  0
   14.8020   11.2430    3.7750 C   0  0  0  0  0  0  0  0  0  0  0  0
   14.6590    8.3860   -0.9950 C   0  0  0  0  0  0  0  0  0  0  0  0
   14.0420    6.1540   -1.6610 C   0  0  0  0  0  0  0  0  0  0  0  0
   14.9830    6.5490    0.5000 C   0  0  0  0  0  0  0  0  0  0  0  0
   14.8360    5.5510   -5.0670 C   0  0  0  0  0  0  0  0  0  0  0  0
   16.8770    4.2330   -5.5700 C   0  0  0  0  0  0  0  0  0  0  0  0
   15.7220    3.7890   -3.3820 C   0  0  0  0  0  0  0  0  0  0  0  0
   16.0140    9.8760    7.1360 C   0  0  0  0  0  0  0  0  0  0  0  0
   15.9770   10.1690    5.7720 C   0  0  0  0  0  0  0  0  0  0  0  0
   14.8940   10.8840    5.2570 C   0  0  0  0  0  0  0  0  0  0  0  0
   13.9510   10.9700    7.4210 N   0  0  0  0  0  0  0  0  0  0  0  0
   15.5170   10.2440    2.9760 N   0  0  0  0  0  0  0  0  0  0  0  0
   14.9130    9.6280    1.9340 C   0  0  0  0  0  0  0  0  0  0  0  0
   13.3160   10.0560    1.4720 S   0  0  0  0  0  0  0  0  0  0  0  0
   15.6080    8.6870    1.2690 N   0  0  0  0  0  0  0  0  0  0  0  0
   15.0810    7.9110    0.2330 C   0  0  0  0  0  0  0  0  0  0  0  0
   14.1420    7.5030   -1.9370 C   0  0  0  0  0  0  0  0  0  0  0  0
   14.4700    5.6770   -0.4380 C   0  0  0  0  0  0  0  0  0  0  0  0
   13.3910    5.0250   -2.8600 S   0  0  0  0  0  0  0  0  0  0  0  0
   13.1260    3.8060   -2.1760 O   0  0  0  0  0  0  0  0  0  0  0  0
   12.3920    5.7340   -3.5640 O   0  0  0  0  0  0  0  0  0  0  0  0
   14.7030    4.7650   -3.8290 N   0  0  0  0  0  0  0  0  0  0  0  0
   15.5780    4.7780   -6.1550 C   0  0  0  0  0  0  0  0  0  0  0  0
   16.5170    3.1600   -4.5430 C   0  0  0  0  0  0  0  0  0  0  0  0
   13.0369   11.8121    5.7515 H   0  0  0  0  0  0  0  0  0  0  0  0
   14.9857   10.0810    9.0047 H   0  0  0  0  0  0  0  0  0  0  0  0
   15.2530   12.2327    3.6105 H   0  0  0  0  0  0  0  0  0  0  0  0
   13.7454   11.2662    3.4699 H   0  0  0  0  0  0  0  0  0  0  0  0
   14.7309    9.4433   -1.2229 H   0  0  0  0  0  0  0  0  0  0  0  0
   15.3145    6.1675    1.4590 H   0  0  0  0  0  0  0  0  0  0  0  0
   15.3918    6.4738   -4.8445 H   0  0  0  0  0  0  0  0  0  0  0  0
   13.8317    5.8075   -5.4351 H   0  0  0  0  0  0  0  0  0  0  0  0
   17.4363    5.0446   -5.0818 H   0  0  0  0  0  0  0  0  0  0  0  0
   17.4914    3.7936   -6.3696 H   0  0  0  0  0  0  0  0  0  0  0  0
   15.2153    2.9839   -2.8298 H   0  0  0  0  0  0  0  0  0  0  0  0
   16.4284    4.3035   -2.7140 H   0  0  0  0  0  0  0  0  0  0  0  0
   16.8472    9.3256    7.5579 H   0  0  0  0  0  0  0  0  0  0  0  0
   16.7800    9.8451    5.1198 H   0  0  0  0  0  0  0  0  0  0  0  0
   16.4633   10.0148    3.2039 H   0  0  0  0  0  0  0  0  0  0  0  0
   16.5604    8.5335    1.5324 H   0  0  0  0  0  0  0  0  0  0  0  0
   13.8136    7.8785   -2.8994 H   0  0  0  0  0  0  0  0  0  0  0  0
   14.4030    4.6183   -0.2150 H   0  0  0  0  0  0  0  0  0  0  0  0
   15.8043    5.4491   -6.9967 H   0  0  0  0  0  0  0  0  0  0  0  0
   14.9531    3.9445   -6.5083 H   0  0  0  0  0  0  0  0  0  0  0  0
   17.4394    2.7074   -4.1501 H   0  0  0  0  0  0  0  0  0  0  0  0
   15.9047    2.3841   -5.0258 H   0  0  0  0  0  0  0  0  0  0  0  0
  1 13  1  0  0  0  0
  1 27  1  0  0  0  0
  2 28  1  0  0  0  0
  3 12  1  0  0  0  0
  3 29  1  0  0  0  0
  3 30  1  0  0  0  0
  4 18  2  0  0  0  0
  4 31  1  0  0  0  0
  5 19  2  0  0  0  0
  5 20  1  0  0  0  0
  6 18  1  0  0  0  0
  6 32  1  0  0  0  0
  7 25  1  0  0  0  0
  7 33  1  0  0  0  0
  7 34  1  0  0  0  0
  8 35  1  0  0  0  0
  8 36  1  0  0  0  0
  9 26  1  0  0  0  0
  9 37  1  0  0  0  0
  9 38  1  0  0  0  0
 10  2  1  0  0  0  0
 10 39  1  0  0  0  0
 11 10  2  0  0  0  0
 11 40  1  0  0  0  0
 12  1  2  0  0  0  0
 12 11  1  0  0  0  0
 13  2  2  0  0  0  0
 14  3  1  0  0  0  0
 14 41  1  0  0  0  0
 15 14  1  0  0  0  0
 15 16  2  0  0  0  0
 17 15  1  0  0  0  0
 17 42  1  0  0  0  0
 18 17  1  0  0  0  0
 19  4  1  0  0  0  0
 19 43  1  0  0  0  0
 20  6  2  0  0  0  0
 20 44  1  0  0  0  0
 21  5  1  0  0  0  0
 21 22  2  0  0  0  0
 21 23  2  0  0  0  0
 21 24  1  0  0  0  0
 24  7  1  0  0  0  0
 24  9  1  0  0  0  0
 25  8  1  0  0  0  0
 25 45  1  0  0  0  0
 25 46  1  0  0  0  0
 26  8  1  0  0  0  0
 26 47  1  0  0  0  0
 26 48  1  0  0  0  0
M  END
