4jsc_ligand
 OpenBabel08222323353D

 69 71  0  0  1  0  0  0  0  0999 V2000
  -11.5110   20.8680    0.8390 C   0  0  2  0  0  0  0  0  0  0  0  0
  -12.2880   22.0650    0.4180 C   0  0  0  0  0  0  0  0  0  0  0  0
  -11.6200   22.9450   -0.3750 N   0  0  0  0  0  0  0  0  0  0  0  0
  -12.1560   24.2630   -0.7000 C   0  0  0  0  0  0  0  0  0  0  0  0
  -11.0050   25.2690   -0.6510 C   0  0  0  0  0  0  0  0  0  0  0  0
  -11.4250   26.5980   -1.2560 C   0  0  2  0  0  0  0  0  0  0  0  0
  -10.2700   27.3480   -1.6630 O   0  0  0  0  0  0  0  0  0  0  0  0
  -12.2870   27.3920   -0.2640 C   0  0  0  0  0  0  0  0  0  0  0  0
  -11.5350   27.7190    0.9060 O   0  0  0  0  0  0  0  0  0  0  0  0
  -13.4430   22.3030    0.7910 O   0  0  0  0  0  0  0  0  0  0  0  0
  -10.1840   20.8320    0.1460 N   0  3  0  0  0  0  0  0  0  0  0  0
  -12.1930   19.5750    0.4470 C   0  0  2  0  0  0  0  0  0  0  0  0
  -13.2610   19.1570    1.4000 C   0  0  0  0  0  0  0  0  0  0  0  0
  -13.1450   19.3740    2.7710 C   0  0  0  0  0  0  0  0  0  0  0  0
  -14.1610   18.9140    3.6300 C   0  0  0  0  0  0  0  0  0  0  0  0
  -14.3870   18.5340    0.9260 C   0  0  0  0  0  0  0  0  0  0  0  0
  -14.5680   18.4350   -0.3950 F   0  0  0  0  0  0  0  0  0  0  0  0
  -15.3710   18.0350    1.7360 C   0  0  0  0  0  0  0  0  0  0  0  0
  -16.7150   17.1480    1.0210 Cl  0  0  0  0  0  0  0  0  0  0  0  0
  -15.2750   18.2330    3.1140 C   0  0  0  0  0  0  0  0  0  0  0  0
  -11.0330   18.6000    0.3470 C   0  0  1  0  0  0  0  0  0  0  0  0
  -10.4990   18.2800    1.6760 C   0  0  0  0  0  0  0  0  0  0  0  0
  -10.0660   18.0310    2.7070 N   0  0  0  0  0  0  0  0  0  0  0  0
  -11.3580   17.3210   -0.3700 C   0  0  0  0  0  0  0  0  0  0  0  0
  -11.9690   17.3190   -1.6070 C   0  0  0  0  0  0  0  0  0  0  0  0
  -12.1800   18.5050   -2.2300 F   0  0  0  0  0  0  0  0  0  0  0  0
  -12.3660   16.1710   -2.2490 C   0  0  0  0  0  0  0  0  0  0  0  0
  -11.0680   16.0950    0.2300 C   0  0  0  0  0  0  0  0  0  0  0  0
  -11.4460   14.9080   -0.3980 C   0  0  0  0  0  0  0  0  0  0  0  0
  -12.1180   14.9590   -1.6270 C   0  0  0  0  0  0  0  0  0  0  0  0
  -12.6830   13.4820   -2.3790 Cl  0  0  0  0  0  0  0  0  0  0  0  0
   -9.9990   19.4320   -0.3790 C   0  0  2  0  0  0  0  0  0  0  0  0
   -8.5930   18.9140   -0.1070 C   0  0  0  0  0  0  0  0  0  0  0  0
   -7.6640   19.2440   -1.2790 C   0  0  0  0  0  0  0  0  0  0  0  0
   -8.0400   20.6030   -1.8770 C   0  0  0  0  0  0  0  0  0  0  0  0
   -7.8180   18.1560   -2.3480 C   0  0  0  0  0  0  0  0  0  0  0  0
   -6.2090   19.2820   -0.7840 C   0  0  0  0  0  0  0  0  0  0  0  0
  -11.3704   20.9016    1.9295 H   0  0  0  0  0  0  0  0  0  0  0  0
  -10.7310   22.6799   -0.7483 H   0  0  0  0  0  0  0  0  0  0  0  0
  -12.9273   24.5429    0.0326 H   0  0  0  0  0  0  0  0  0  0  0  0
  -12.5958   24.2485   -1.7081 H   0  0  0  0  0  0  0  0  0  0  0  0
  -10.1514   24.8685   -1.2175 H   0  0  0  0  0  0  0  0  0  0  0  0
  -10.7083   25.4271    0.3964 H   0  0  0  0  0  0  0  0  0  0  0  0
  -12.0330   26.3940   -2.1497 H   0  0  0  0  0  0  0  0  0  0  0  0
   -9.7176   27.5114   -0.9076 H   0  0  0  0  0  0  0  0  0  0  0  0
  -13.1582   26.7854    0.0241 H   0  0  0  0  0  0  0  0  0  0  0  0
  -12.6293   28.3202   -0.7448 H   0  0  0  0  0  0  0  0  0  0  0  0
  -10.7831   28.2453    0.6609 H   0  0  0  0  0  0  0  0  0  0  0  0
   -9.4477   21.0579    0.7962 H   0  0  0  0  0  0  0  0  0  0  0  0
  -10.1734   21.4916   -0.6161 H   0  0  0  0  0  0  0  0  0  0  0  0
  -12.6611   19.6896   -0.5418 H   0  0  0  0  0  0  0  0  0  0  0  0
  -12.2813   19.8917    3.1723 H   0  0  0  0  0  0  0  0  0  0  0  0
  -14.0827   19.0868    4.6973 H   0  0  0  0  0  0  0  0  0  0  0  0
  -16.0501   17.8660    3.7770 H   0  0  0  0  0  0  0  0  0  0  0  0
  -12.8587   16.2128   -3.2137 H   0  0  0  0  0  0  0  0  0  0  0  0
  -10.5502   16.0650    1.1819 H   0  0  0  0  0  0  0  0  0  0  0  0
  -11.2214   13.9523    0.0616 H   0  0  0  0  0  0  0  0  0  0  0  0
  -10.1846   19.4074   -1.4629 H   0  0  0  0  0  0  0  0  0  0  0  0
   -8.6293   17.8232    0.0302 H   0  0  0  0  0  0  0  0  0  0  0  0
   -8.2039   19.3858    0.8073 H   0  0  0  0  0  0  0  0  0  0  0  0
   -7.3684   20.8322   -2.7175 H   0  0  0  0  0  0  0  0  0  0  0  0
   -7.9424   21.3822   -1.1068 H   0  0  0  0  0  0  0  0  0  0  0  0
   -9.0791   20.5707   -2.2363 H   0  0  0  0  0  0  0  0  0  0  0  0
   -7.5481   17.1797   -1.9190 H   0  0  0  0  0  0  0  0  0  0  0  0
   -7.1550   18.3794   -3.1968 H   0  0  0  0  0  0  0  0  0  0  0  0
   -8.8614   18.1281   -2.6951 H   0  0  0  0  0  0  0  0  0  0  0  0
   -6.1028   20.0637   -0.0174 H   0  0  0  0  0  0  0  0  0  0  0  0
   -5.5400   19.5035   -1.6286 H   0  0  0  0  0  0  0  0  0  0  0  0
   -5.9431   18.3061   -0.3518 H   0  0  0  0  0  0  0  0  0  0  0  0
  1  2  1  0  0  0  0
  1 11  1  0  0  0  0
  1 12  1  0  0  0  0
  1 38  1  1  0  0  0
  2  3  1  0  0  0  0
  2 10  2  0  0  0  0
  3  4  1  0  0  0  0
  3 39  1  0  0  0  0
  4  5  1  0  0  0  0
  4 40  1  0  0  0  0
  4 41  1  0  0  0  0
  5  6  1  0  0  0  0
  5 42  1  0  0  0  0
  5 43  1  0  0  0  0
  6  7  1  0  0  0  0
  6  8  1  0  0  0  0
  6 44  1  6  0  0  0
  7 45  1  0  0  0  0
  8  9  1  0  0  0  0
  8 46  1  0  0  0  0
  8 47  1  0  0  0  0
  9 48  1  0  0  0  0
 11 32  1  0  0  0  0
 11 49  1  0  0  0  0
 11 50  1  0  0  0  0
 12 13  1  0  0  0  0
 12 21  1  0  0  0  0
 12 51  1  6  0  0  0
 13 14  2  0  0  0  0
 13 16  1  0  0  0  0
 14 15  1  0  0  0  0
 14 52  1  0  0  0  0
 15 20  2  0  0  0  0
 15 53  1  0  0  0  0
 16 17  1  0  0  0  0
 16 18  2  0  0  0  0
 18 19  1  0  0  0  0
 18 20  1  0  0  0  0
 20 54  1  0  0  0  0
 21 22  1  1  0  0  0
 21 24  1  0  0  0  0
 21 32  1  0  0  0  0
 22 23  3  0  0  0  0
 24 25  2  0  0  0  0
 24 28  1  0  0  0  0
 25 26  1  0  0  0  0
 25 27  1  0  0  0  0
 27 30  2  0  0  0  0
 27 55  1  0  0  0  0
 28 29  2  0  0  0  0
 28 56  1  0  0  0  0
 29 30  1  0  0  0  0
 29 57  1  0  0  0  0
 30 31  1  0  0  0  0
 32 33  1  0  0  0  0
 32 58  1  6  0  0  0
 33 34  1  0  0  0  0
 33 59  1  0  0  0  0
 33 60  1  0  0  0  0
 34 35  1  0  0  0  0
 34 36  1  0  0  0  0
 34 37  1  0  0  0  0
 35 61  1  0  0  0  0
 35 62  1  0  0  0  0
 35 63  1  0  0  0  0
 36 64  1  0  0  0  0
 36 65  1  0  0  0  0
 36 66  1  0  0  0  0
 37 67  1  0  0  0  0
 37 68  1  0  0  0  0
 37 69  1  0  0  0  0
M  CHG  1  11   1
M  END
