4jss_ligand
 OpenBabel08222323353D

 15 15  0  0  0  0  0  0  0  0999 V2000
   16.0870    3.0630   12.9780 C   0  0  0  0  0  0  0  0  0  0  0  0
   15.5330    3.7010   14.1080 C   0  0  0  0  0  0  0  0  0  0  0  0
   14.7730    2.9540   15.0220 C   0  0  0  0  0  0  0  0  0  0  0  0
   15.4900    0.9020   13.9340 N   0  0  0  0  0  0  0  0  0  0  0  0
   15.5950   -0.4810   13.9410 O   0  0  0  0  0  0  0  0  0  0  0  0
   16.0990    1.6670   12.9050 C   0  0  0  0  0  0  0  0  0  0  0  0
   14.7620    1.5340   14.9300 C   0  0  0  0  0  0  0  0  0  0  0  0
   13.8040    0.6030   15.9880 S   0  0  0  0  0  0  0  0  0  0  0  0
   16.5039    3.6561   12.1654 H   0  0  0  0  0  0  0  0  0  0  0  0
   15.6939    4.7658   14.2701 H   0  0  0  0  0  0  0  0  0  0  0  0
   13.7303    3.2891   14.9200 H   0  0  0  0  0  0  0  0  0  0  0  0
   15.1426    3.2064   16.0268 H   0  0  0  0  0  0  0  0  0  0  0  0
   15.1323   -0.8288   14.6943 H   0  0  0  0  0  0  0  0  0  0  0  0
   17.1542    1.3593   12.8613 H   0  0  0  0  0  0  0  0  0  0  0  0
   15.5978    1.3928   11.9650 H   0  0  0  0  0  0  0  0  0  0  0  0
  1  2  2  0  0  0  0
  1  9  1  0  0  0  0
  2  3  1  0  0  0  0
  2 10  1  0  0  0  0
  3  7  1  0  0  0  0
  3 11  1  0  0  0  0
  3 12  1  0  0  0  0
  4  5  1  0  0  0  0
  4  6  1  0  0  0  0
  4  7  1  0  0  0  0
  5 13  1  0  0  0  0
  6  1  1  0  0  0  0
  6 14  1  0  0  0  0
  6 15  1  0  0  0  0
  7  8  2  0  0  0  0
M  END
