4jv6_ligand
 OpenBabel08222323353D

 38 41  0  0  0  0  0  0  0  0999 V2000
   19.4930  -16.7440   16.2510 C   0  0  0  0  0  0  0  0  0  0  0  0
   20.0370  -15.6060   16.8680 C   0  0  0  0  0  0  0  0  0  0  0  0
   20.7250  -14.6170   16.1790 C   0  0  0  0  0  0  0  0  0  0  0  0
   20.9190  -14.7670   14.7990 C   0  0  0  0  0  0  0  0  0  0  0  0
   20.3670  -15.8990   14.1730 C   0  0  0  0  0  0  0  0  0  0  0  0
   19.6460  -16.8780   14.8750 C   0  0  0  0  0  0  0  0  0  0  0  0
   19.0330  -18.1330   14.1750 C   0  0  0  0  0  0  0  0  0  0  0  0
   19.2110  -18.1020   12.6900 N   0  0  0  0  0  0  0  0  0  0  0  0
   20.2960  -18.6220   12.0670 C   0  0  0  0  0  0  0  0  0  0  0  0
   21.4460  -19.2740   12.5480 C   0  0  0  0  0  0  0  0  0  0  0  0
   22.4440  -19.6820   11.6260 C   0  0  0  0  0  0  0  0  0  0  0  0
   22.2360  -19.4210   10.2490 C   0  0  0  0  0  0  0  0  0  0  0  0
   21.0840  -18.7530    9.7870 C   0  0  0  0  0  0  0  0  0  0  0  0
   20.1040  -18.3700   10.7100 C   0  0  0  0  0  0  0  0  0  0  0  0
   18.9040  -17.6770   10.5530 N   0  0  0  0  0  0  0  0  0  0  0  0
   18.3740  -17.5190   11.7700 C   0  0  0  0  0  0  0  0  0  0  0  0
   17.1020  -16.9920   12.0360 C   0  0  0  0  0  0  0  0  0  0  0  0
   16.0340  -17.5970   11.3610 C   0  0  0  0  0  0  0  0  0  0  0  0
   14.7040  -17.1780   11.5880 C   0  0  0  0  0  0  0  0  0  0  0  0
   14.5160  -16.1940   12.5630 C   0  0  0  0  0  0  0  0  0  0  0  0
   15.5670  -15.5970   13.2330 C   0  0  0  0  0  0  0  0  0  0  0  0
   16.8820  -16.0000   12.9860 C   0  0  0  0  0  0  0  0  0  0  0  0
   18.9692  -17.4960   16.8300 H   0  0  0  0  0  0  0  0  0  0  0  0
   19.9130  -15.4940   17.9391 H   0  0  0  0  0  0  0  0  0  0  0  0
   21.1052  -13.7448   16.6984 H   0  0  0  0  0  0  0  0  0  0  0  0
   21.4780  -14.0322   14.2310 H   0  0  0  0  0  0  0  0  0  0  0  0
   20.5039  -16.0206   13.1046 H   0  0  0  0  0  0  0  0  0  0  0  0
   17.9572  -18.1733   14.4010 H   0  0  0  0  0  0  0  0  0  0  0  0
   19.5248  -19.0337   14.5709 H   0  0  0  0  0  0  0  0  0  0  0  0
   21.5679  -19.4621   13.6086 H   0  0  0  0  0  0  0  0  0  0  0  0
   23.3438  -20.1813   11.9667 H   0  0  0  0  0  0  0  0  0  0  0  0
   22.9823  -19.7435    9.5320 H   0  0  0  0  0  0  0  0  0  0  0  0
   20.9588  -18.5389    8.7317 H   0  0  0  0  0  0  0  0  0  0  0  0
   16.2304  -18.3965   10.6558 H   0  0  0  0  0  0  0  0  0  0  0  0
   13.8720  -17.5980   11.0345 H   0  0  0  0  0  0  0  0  0  0  0  0
   13.5046  -15.8867   12.8033 H   0  0  0  0  0  0  0  0  0  0  0  0
   15.3702  -14.8119   13.9540 H   0  0  0  0  0  0  0  0  0  0  0  0
   17.7104  -15.5506   13.5216 H   0  0  0  0  0  0  0  0  0  0  0  0
  1  2  2  0  0  0  0
  1  6  1  0  0  0  0
  1 23  1  0  0  0  0
  2  3  1  0  0  0  0
  2 24  1  0  0  0  0
  3  4  2  0  0  0  0
  3 25  1  0  0  0  0
  4  5  1  0  0  0  0
  4 26  1  0  0  0  0
  5  6  2  0  0  0  0
  5 27  1  0  0  0  0
  6  7  1  0  0  0  0
  7  8  1  0  0  0  0
  7 28  1  0  0  0  0
  7 29  1  0  0  0  0
  8  9  1  0  0  0  0
  8 16  1  0  0  0  0
  9 10  2  0  0  0  0
  9 14  1  0  0  0  0
 10 11  1  0  0  0  0
 10 30  1  0  0  0  0
 11 12  2  0  0  0  0
 11 31  1  0  0  0  0
 12 13  1  0  0  0  0
 12 32  1  0  0  0  0
 13 14  2  0  0  0  0
 13 33  1  0  0  0  0
 14 15  1  0  0  0  0
 15 16  2  0  0  0  0
 16 17  1  0  0  0  0
 17 18  2  0  0  0  0
 17 22  1  0  0  0  0
 18 19  1  0  0  0  0
 18 34  1  0  0  0  0
 19 20  2  0  0  0  0
 19 35  1  0  0  0  0
 20 21  1  0  0  0  0
 20 36  1  0  0  0  0
 21 22  2  0  0  0  0
 21 37  1  0  0  0  0
 22 38  1  0  0  0  0
M  END
