4jv8_ligand
 OpenBabel08222323353D

 37 41  0  0  1  0  0  0  0  0999 V2000
   23.4990   -8.5450  -15.9360 C   0  0  0  0  0  0  0  0  0  0  0  0
   22.7650   -9.5290  -16.4750 C   0  0  0  0  0  0  0  0  0  0  0  0
   23.0890  -10.8660  -16.4890 C   0  0  0  0  0  0  0  0  0  0  0  0
   24.2050  -11.2500  -15.8690 C   0  0  0  0  0  0  0  0  0  0  0  0
   24.9670  -10.2790  -15.2320 N   0  0  0  0  0  0  0  0  0  0  0  0
   24.6170   -8.9640  -15.2950 C   0  0  0  0  0  0  0  0  0  0  0  0
   25.3790   -7.8380  -14.6190 C   0  0  1  0  0  0  0  0  0  0  0  0
   24.7030   -7.4720  -13.3480 N   0  0  0  0  0  0  0  0  0  0  0  0
   23.4970   -6.8040  -13.1730 C   0  0  0  0  0  0  0  0  0  0  0  0
   22.6650   -6.1290  -14.1280 C   0  0  0  0  0  0  0  0  0  0  0  0
   21.5000   -5.5560  -13.6380 C   0  0  0  0  0  0  0  0  0  0  0  0
   21.1960   -5.6070  -12.2620 C   0  0  0  0  0  0  0  0  0  0  0  0
   22.0390   -6.2890  -11.3410 C   0  0  0  0  0  0  0  0  0  0  0  0
   23.1780   -6.9150  -11.8730 C   0  0  0  0  0  0  0  0  0  0  0  0
   24.1780   -7.5840  -11.1960 N   0  0  0  0  0  0  0  0  0  0  0  0
   25.0420   -8.0120  -12.1240 C   0  0  0  0  0  0  0  0  0  0  0  0
   26.2740   -8.6970  -11.9670 C   0  0  0  0  0  0  0  0  0  0  0  0
   26.6660   -9.1790  -10.6840 C   0  0  0  0  0  0  0  0  0  0  0  0
   27.9500   -9.7470  -10.6140 C   0  0  0  0  0  0  0  0  0  0  0  0
   28.8330   -9.8350  -11.7230 C   0  0  0  0  0  0  0  0  0  0  0  0
   28.4190   -9.3060  -12.9210 C   0  0  0  0  0  0  0  0  0  0  0  0
   27.1570   -8.6910  -13.0300 C   0  0  0  0  0  0  0  0  0  0  0  0
   26.7920   -8.1530  -14.3180 N   0  0  0  0  0  0  0  0  0  0  0  0
   23.2209   -7.4997  -16.0071 H   0  0  0  0  0  0  0  0  0  0  0  0
   21.8295   -9.2448  -16.9432 H   0  0  0  0  0  0  0  0  0  0  0  0
   22.4542  -11.5875  -16.9905 H   0  0  0  0  0  0  0  0  0  0  0  0
   24.5091  -12.2905  -15.8622 H   0  0  0  0  0  0  0  0  0  0  0  0
   25.3618   -6.9701  -15.2946 H   0  0  0  0  0  0  0  0  0  0  0  0
   22.9326   -6.0699  -15.1768 H   0  0  0  0  0  0  0  0  0  0  0  0
   20.8163   -5.0639  -14.3203 H   0  0  0  0  0  0  0  0  0  0  0  0
   20.3007   -5.1160  -11.8981 H   0  0  0  0  0  0  0  0  0  0  0  0
   21.8134   -6.3237  -10.2813 H   0  0  0  0  0  0  0  0  0  0  0  0
   26.0164   -9.1119   -9.8188 H   0  0  0  0  0  0  0  0  0  0  0  0
   28.2848  -10.1396   -9.6607 H   0  0  0  0  0  0  0  0  0  0  0  0
   29.8047  -10.3057  -11.6268 H   0  0  0  0  0  0  0  0  0  0  0  0
   29.0676   -9.3623  -13.7877 H   0  0  0  0  0  0  0  0  0  0  0  0
   27.5178   -7.9879  -15.0299 H   0  0  0  0  0  0  0  0  0  0  0  0
  1  2  2  0  0  0  0
  1  6  1  0  0  0  0
  1 24  1  0  0  0  0
  2  3  1  0  0  0  0
  2 25  1  0  0  0  0
  3  4  2  0  0  0  0
  3 26  1  0  0  0  0
  4  5  1  0  0  0  0
  4 27  1  0  0  0  0
  5  6  2  0  0  0  0
  6  7  1  0  0  0  0
  7  8  1  0  0  0  0
  7 23  1  0  0  0  0
  7 28  1  6  0  0  0
  8  9  1  0  0  0  0
  8 16  1  0  0  0  0
  9 10  2  0  0  0  0
  9 14  1  0  0  0  0
 10 11  1  0  0  0  0
 10 29  1  0  0  0  0
 11 12  2  0  0  0  0
 11 30  1  0  0  0  0
 12 13  1  0  0  0  0
 12 31  1  0  0  0  0
 13 14  2  0  0  0  0
 13 32  1  0  0  0  0
 14 15  1  0  0  0  0
 15 16  2  0  0  0  0
 16 17  1  0  0  0  0
 17 18  2  0  0  0  0
 17 22  1  0  0  0  0
 18 19  1  0  0  0  0
 18 33  1  0  0  0  0
 19 20  2  0  0  0  0
 19 34  1  0  0  0  0
 20 21  1  0  0  0  0
 20 35  1  0  0  0  0
 21 22  2  0  0  0  0
 21 36  1  0  0  0  0
 22 23  1  0  0  0  0
 23 37  1  0  0  0  0
M  END
