4jv9_ligand
 OpenBabel08222323353D

 50 53  0  0  1  0  0  0  0  0999 V2000
    4.6440  -33.5680    1.0790 C   0  0  0  0  0  0  0  0  0  0  0  0
    5.5310  -33.4550    2.1750 C   0  0  0  0  0  0  0  0  0  0  0  0
    6.6680  -32.6600    2.0640 C   0  0  0  0  0  0  0  0  0  0  0  0
    7.8140  -32.5990    3.3670 Cl  0  0  0  0  0  0  0  0  0  0  0  0
    6.8980  -31.9670    0.8440 C   0  0  0  0  0  0  0  0  0  0  0  0
    6.0360  -32.0700   -0.2360 C   0  0  0  0  0  0  0  0  0  0  0  0
    4.9050  -32.8800   -0.1360 C   0  0  0  0  0  0  0  0  0  0  0  0
    3.9600  -33.0910   -1.3080 C   0  0  1  0  0  0  0  0  0  0  0  0
    3.6670  -31.8300   -1.9110 N   0  0  0  0  0  0  0  0  0  0  0  0
    2.7270  -30.9560   -1.2050 C   0  0  0  0  0  0  0  0  0  0  0  0
    4.2810  -31.4550   -3.0990 C   0  0  0  0  0  0  0  0  0  0  0  0
    4.0740  -30.3440   -3.5840 O   0  0  0  0  0  0  0  0  0  0  0  0
    5.2550  -32.4530   -3.8420 C   0  0  2  0  0  0  0  0  0  0  0  0
    4.7180  -32.7660   -5.2500 C   0  0  0  0  0  0  0  0  0  0  0  0
    5.7050  -33.3900   -6.2290 C   0  0  0  0  0  0  0  0  0  0  0  0
    5.8930  -34.7800   -6.3690 C   0  0  0  0  0  0  0  0  0  0  0  0
    6.8230  -35.2750   -7.3110 C   0  0  0  0  0  0  0  0  0  0  0  0
    7.5530  -34.3820   -8.1000 C   0  0  0  0  0  0  0  0  0  0  0  0
    7.3630  -33.0110   -7.9610 C   0  0  0  0  0  0  0  0  0  0  0  0
    6.4550  -32.5260   -7.0400 C   0  0  0  0  0  0  0  0  0  0  0  0
    5.4880  -33.6080   -3.0700 O   0  0  0  0  0  0  0  0  0  0  0  0
    4.4010  -34.1430   -2.3850 C   0  0  1  0  0  0  0  0  0  0  0  0
    4.8330  -35.4320   -1.7880 C   0  0  0  0  0  0  0  0  0  0  0  0
    3.8930  -36.3510   -1.2610 C   0  0  0  0  0  0  0  0  0  0  0  0
    4.3520  -37.5240   -0.6290 C   0  0  0  0  0  0  0  0  0  0  0  0
    5.7430  -37.8030   -0.5140 C   0  0  0  0  0  0  0  0  0  0  0  0
    6.3040  -39.1850    0.3000 Cl  0  0  0  0  0  0  0  0  0  0  0  0
    6.6590  -36.8810   -1.0550 C   0  0  0  0  0  0  0  0  0  0  0  0
    6.2200  -35.7100   -1.6890 C   0  0  0  0  0  0  0  0  0  0  0  0
    3.7572  -34.1851    1.1671 H   0  0  0  0  0  0  0  0  0  0  0  0
    5.3260  -33.9855    3.0978 H   0  0  0  0  0  0  0  0  0  0  0  0
    7.7762  -31.3377    0.7559 H   0  0  0  0  0  0  0  0  0  0  0  0
    6.2390  -31.5255   -1.1511 H   0  0  0  0  0  0  0  0  0  0  0  0
    3.0219  -33.4745   -0.8803 H   0  0  0  0  0  0  0  0  0  0  0  0
    2.5928  -30.0251   -1.7754 H   0  0  0  0  0  0  0  0  0  0  0  0
    3.1244  -30.7203   -0.2068 H   0  0  0  0  0  0  0  0  0  0  0  0
    1.7579  -31.4663   -1.1028 H   0  0  0  0  0  0  0  0  0  0  0  0
    6.2232  -31.9457   -3.9657 H   0  0  0  0  0  0  0  0  0  0  0  0
    4.3619  -31.8226   -5.6896 H   0  0  0  0  0  0  0  0  0  0  0  0
    3.8726  -33.4609   -5.1388 H   0  0  0  0  0  0  0  0  0  0  0  0
    5.3246  -35.4688   -5.7545 H   0  0  0  0  0  0  0  0  0  0  0  0
    6.9695  -36.3434   -7.4211 H   0  0  0  0  0  0  0  0  0  0  0  0
    8.2688  -34.7584   -8.8218 H   0  0  0  0  0  0  0  0  0  0  0  0
    7.9289  -32.3215   -8.5770 H   0  0  0  0  0  0  0  0  0  0  0  0
    6.3193  -31.4550   -6.9420 H   0  0  0  0  0  0  0  0  0  0  0  0
    3.5659  -34.3262   -3.0771 H   0  0  0  0  0  0  0  0  0  0  0  0
    2.8302  -36.1539   -1.3430 H   0  0  0  0  0  0  0  0  0  0  0  0
    3.6329  -38.2263   -0.2232 H   0  0  0  0  0  0  0  0  0  0  0  0
    7.7220  -37.0798   -0.9801 H   0  0  0  0  0  0  0  0  0  0  0  0
    6.9420  -35.0161   -2.1041 H   0  0  0  0  0  0  0  0  0  0  0  0
  1  2  2  0  0  0  0
  1  7  1  0  0  0  0
  1 30  1  0  0  0  0
  2  3  1  0  0  0  0
  2 31  1  0  0  0  0
  3  4  1  0  0  0  0
  3  5  2  0  0  0  0
  5  6  1  0  0  0  0
  5 32  1  0  0  0  0
  6  7  2  0  0  0  0
  6 33  1  0  0  0  0
  7  8  1  0  0  0  0
  8  9  1  0  0  0  0
  8 22  1  0  0  0  0
  8 34  1  1  0  0  0
  9 10  1  0  0  0  0
  9 11  1  0  0  0  0
 10 35  1  0  0  0  0
 10 36  1  0  0  0  0
 10 37  1  0  0  0  0
 11 12  2  0  0  0  0
 11 13  1  0  0  0  0
 13 14  1  0  0  0  0
 13 21  1  0  0  0  0
 13 38  1  6  0  0  0
 14 15  1  0  0  0  0
 14 39  1  0  0  0  0
 14 40  1  0  0  0  0
 15 16  2  0  0  0  0
 15 20  1  0  0  0  0
 16 17  1  0  0  0  0
 16 41  1  0  0  0  0
 17 18  2  0  0  0  0
 17 42  1  0  0  0  0
 18 19  1  0  0  0  0
 18 43  1  0  0  0  0
 19 20  2  0  0  0  0
 19 44  1  0  0  0  0
 20 45  1  0  0  0  0
 21 22  1  0  0  0  0
 22 23  1  0  0  0  0
 22 46  1  6  0  0  0
 23 24  2  0  0  0  0
 23 29  1  0  0  0  0
 24 25  1  0  0  0  0
 24 47  1  0  0  0  0
 25 26  2  0  0  0  0
 25 48  1  0  0  0  0
 26 27  1  0  0  0  0
 26 28  1  0  0  0  0
 28 29  2  0  0  0  0
 28 49  1  0  0  0  0
 29 50  1  0  0  0  0
M  END
