4jvj_ligand
 OpenBabel08222323353D

 37 39  0  0  0  0  0  0  0  0999 V2000
   15.9610   32.3150  -10.2440 O   0  0  0  0  0  1  0  0  0  0  0  0
   16.3110   33.7740   -9.7350 P   0  0  0  0  0  0  0  0  0  0  0  0
   17.5570   33.6370   -8.9470 O   0  0  0  0  0  1  0  0  0  0  0  0
   16.2570   34.7280  -10.8700 O   0  0  0  0  0  0  0  0  0  0  0  0
   14.8690   34.1420   -8.5700 C   0  0  0  0  0  0  0  0  0  0  0  0
   15.2550   35.6150   -7.5260 P   0  0  0  0  0  0  0  0  0  0  0  0
   14.9220   35.0810   -6.0500 O   0  0  0  0  0  1  0  0  0  0  0  0
   16.7050   35.8710   -7.6260 O   0  0  0  0  0  1  0  0  0  0  0  0
   14.3090   36.7220   -7.8550 O   0  0  0  0  0  0  0  0  0  0  0  0
   14.5410   32.9530   -7.7370 N   0  0  0  0  0  0  0  0  0  0  0  0
   13.8710   31.9480   -8.2990 C   0  0  0  0  0  0  0  0  0  0  0  0
   12.7620   32.2600   -8.9890 N   0  0  0  0  0  0  0  0  0  0  0  0
   12.0430   31.2580   -9.6210 C   0  0  0  0  0  0  0  0  0  0  0  0
   12.5260   29.9510   -9.5200 N   0  0  0  0  0  0  0  0  0  0  0  0
   13.6530   29.7060   -8.8170 C   0  0  0  0  0  0  0  0  0  0  0  0
   14.4350   28.3020   -8.5330 S   0  0  0  0  0  0  0  0  0  0  0  0
   14.3500   30.6820   -8.1960 C   0  0  0  0  0  0  0  0  0  0  0  0
   15.4480   30.1770   -7.5500 C   0  0  0  0  0  0  0  0  0  0  0  0
   15.6110   28.8360   -7.6760 C   0  0  0  0  0  0  0  0  0  0  0  0
   16.5530   28.0070   -7.1560 C   0  0  0  0  0  0  0  0  0  0  0  0
   16.8100   26.7570   -7.7420 C   0  0  0  0  0  0  0  0  0  0  0  0
   17.7550   25.8670   -7.2050 C   0  0  0  0  0  0  0  0  0  0  0  0
   18.4750   26.1880   -6.0580 C   0  0  0  0  0  0  0  0  0  0  0  0
   19.4090   25.2720   -5.5550 C   0  0  0  0  0  0  0  0  0  0  0  0
   18.2280   27.4280   -5.4520 C   0  0  0  0  0  0  0  0  0  0  0  0
   17.2780   28.3160   -5.9940 C   0  0  0  0  0  0  0  0  0  0  0  0
   13.9862   34.3798   -9.1816 H   0  0  0  0  0  0  0  0  0  0  0  0
   14.8257   32.9082   -6.7481 H   0  0  0  0  0  0  0  0  0  0  0  0
   11.1377   31.4805  -10.1742 H   0  0  0  0  0  0  0  0  0  0  0  0
   16.1347   30.8020   -6.9811 H   0  0  0  0  0  0  0  0  0  0  0  0
   16.2639   26.4708   -8.6336 H   0  0  0  0  0  0  0  0  0  0  0  0
   17.9263   24.9140   -7.6923 H   0  0  0  0  0  0  0  0  0  0  0  0
   19.8805   25.6875   -4.6522 H   0  0  0  0  0  0  0  0  0  0  0  0
   20.1799   25.0793   -6.3156 H   0  0  0  0  0  0  0  0  0  0  0  0
   18.8997   24.3303   -5.3024 H   0  0  0  0  0  0  0  0  0  0  0  0
   18.7735   27.7062   -4.5575 H   0  0  0  0  0  0  0  0  0  0  0  0
   17.1018   29.2646   -5.4999 H   0  0  0  0  0  0  0  0  0  0  0  0
  1  2  1  0  0  0  0
  2  3  1  0  0  0  0
  2  4  2  0  0  0  0
  2  5  1  0  0  0  0
  5  6  1  0  0  0  0
  5 10  1  0  0  0  0
  5 27  1  0  0  0  0
  6  7  1  0  0  0  0
  6  8  1  0  0  0  0
  6  9  2  0  0  0  0
 10 11  1  0  0  0  0
 10 28  1  0  0  0  0
 11 12  2  0  0  0  0
 11 17  1  0  0  0  0
 12 13  1  0  0  0  0
 13 14  2  0  0  0  0
 13 29  1  0  0  0  0
 14 15  1  0  0  0  0
 15 16  1  0  0  0  0
 15 17  2  0  0  0  0
 16 19  1  0  0  0  0
 17 18  1  0  0  0  0
 18 19  2  0  0  0  0
 18 30  1  0  0  0  0
 19 20  1  0  0  0  0
 20 21  2  0  0  0  0
 20 26  1  0  0  0  0
 21 22  1  0  0  0  0
 21 31  1  0  0  0  0
 22 23  2  0  0  0  0
 22 32  1  0  0  0  0
 23 24  1  0  0  0  0
 23 25  1  0  0  0  0
 24 33  1  0  0  0  0
 24 34  1  0  0  0  0
 24 35  1  0  0  0  0
 25 26  2  0  0  0  0
 25 36  1  0  0  0  0
 26 37  1  0  0  0  0
M  END
