4jwr_ligand
 OpenBabel08222323353D

 52 54  0  0  1  0  0  0  0  0999 V2000
    4.9710  -11.2980   -2.1870 C   0  0  0  0  0  0  0  0  0  0  0  0
    3.6130  -11.1410   -2.4690 C   0  0  0  0  0  0  0  0  0  0  0  0
    2.7990  -12.3050   -3.4520 Cl  0  0  0  0  0  0  0  0  0  0  0  0
    2.9150  -10.0490   -1.9610 C   0  0  0  0  0  0  0  0  0  0  0  0
    3.5740   -9.1160   -1.1650 C   0  0  0  0  0  0  0  0  0  0  0  0
    4.9290   -9.2670   -0.8800 C   0  0  0  0  0  0  0  0  0  0  0  0
    5.6280  -10.3580   -1.3870 C   0  0  0  0  0  0  0  0  0  0  0  0
    7.1190  -10.4980   -1.0700 C   0  0  2  0  0  0  0  0  0  0  0  0
    7.8100  -11.0850   -2.1930 O   0  0  0  0  0  0  0  0  0  0  0  0
    9.2480  -10.9200   -2.1160 C   0  0  1  0  0  0  0  0  0  0  0  0
    9.6870   -9.4730   -2.4850 C   0  0  0  0  0  0  0  0  0  0  0  0
    9.2100   -9.1110   -3.8990 C   0  0  0  0  0  0  0  0  0  0  0  0
    8.4750   -8.1050   -3.9980 O   0  5  0  0  0  0  0  0  0  0  0  0
    9.5770   -9.8480   -4.8460 O   0  0  0  0  0  0  0  0  0  0  0  0
    9.7580  -11.3320   -0.7280 C   0  0  0  0  0  0  0  0  0  0  0  0
   10.9690  -11.5020   -0.6030 O   0  0  0  0  0  0  0  0  0  0  0  0
    8.8590  -11.5500    0.3570 N   0  0  0  0  0  0  0  0  0  0  0  0
    9.3180  -11.9380    1.7150 C   0  0  1  0  0  0  0  0  0  0  0  0
   10.3670  -13.0810    1.7210 C   0  0  0  0  0  0  0  0  0  0  0  0
    9.8380  -14.4260    1.1910 C   0  0  0  0  0  0  0  0  0  0  0  0
    9.8630  -10.6990    2.4460 C   0  0  0  0  0  0  0  0  0  0  0  0
    8.9090   -9.6300    2.3620 O   0  0  0  0  0  0  0  0  0  0  0  0
    7.4040  -11.3150    0.2050 C   0  0  2  0  0  0  0  0  0  0  0  0
    6.6090  -12.6320    0.2380 C   0  0  0  0  0  0  0  0  0  0  0  0
    5.6230  -12.7660    1.2160 C   0  0  0  0  0  0  0  0  0  0  0  0
    4.8870  -13.9460    1.2840 C   0  0  0  0  0  0  0  0  0  0  0  0
    5.1210  -14.9760    0.3710 C   0  0  0  0  0  0  0  0  0  0  0  0
    4.1790  -16.4220    0.4750 Cl  0  0  0  0  0  0  0  0  0  0  0  0
    6.1040  -14.8450   -0.6150 C   0  0  0  0  0  0  0  0  0  0  0  0
    6.8510  -13.6670   -0.6750 C   0  0  0  0  0  0  0  0  0  0  0  0
    5.5147  -12.1462   -2.5870 H   0  0  0  0  0  0  0  0  0  0  0  0
    1.8615   -9.9254   -2.1845 H   0  0  0  0  0  0  0  0  0  0  0  0
    3.0299   -8.2680   -0.7651 H   0  0  0  0  0  0  0  0  0  0  0  0
    5.4385   -8.5351   -0.2637 H   0  0  0  0  0  0  0  0  0  0  0  0
    7.5193   -9.4859   -0.9108 H   0  0  0  0  0  0  0  0  0  0  0  0
    9.7014  -11.5987   -2.8534 H   0  0  0  0  0  0  0  0  0  0  0  0
   10.7842   -9.4061   -2.4448 H   0  0  0  0  0  0  0  0  0  0  0  0
    9.2499   -8.7669   -1.7636 H   0  0  0  0  0  0  0  0  0  0  0  0
    8.4391  -12.3008    2.2680 H   0  0  0  0  0  0  0  0  0  0  0  0
   10.7101  -13.2289    2.7556 H   0  0  0  0  0  0  0  0  0  0  0  0
   11.2163  -12.7730    1.0935 H   0  0  0  0  0  0  0  0  0  0  0  0
   10.6411  -15.1767    1.2297 H   0  0  0  0  0  0  0  0  0  0  0  0
    9.5006  -14.3033    0.1512 H   0  0  0  0  0  0  0  0  0  0  0  0
    8.9944  -14.7591    1.8134 H   0  0  0  0  0  0  0  0  0  0  0  0
   10.8073  -10.3841    1.9780 H   0  0  0  0  0  0  0  0  0  0  0  0
   10.0422  -10.9470    3.5026 H   0  0  0  0  0  0  0  0  0  0  0  0
    9.2493   -8.8671    2.8145 H   0  0  0  0  0  0  0  0  0  0  0  0
    7.0735  -10.7128    1.0641 H   0  0  0  0  0  0  0  0  0  0  0  0
    5.4320  -11.9601    1.9154 H   0  0  0  0  0  0  0  0  0  0  0  0
    4.1288  -14.0655    2.0494 H   0  0  0  0  0  0  0  0  0  0  0  0
    6.2834  -15.6465   -1.3225 H   0  0  0  0  0  0  0  0  0  0  0  0
    7.6204  -13.5528   -1.4300 H   0  0  0  0  0  0  0  0  0  0  0  0
  1  2  2  0  0  0  0
  1  7  1  0  0  0  0
  1 31  1  0  0  0  0
  2  3  1  0  0  0  0
  2  4  1  0  0  0  0
  4  5  2  0  0  0  0
  4 32  1  0  0  0  0
  5  6  1  0  0  0  0
  5 33  1  0  0  0  0
  6  7  2  0  0  0  0
  6 34  1  0  0  0  0
  7  8  1  0  0  0  0
  8  9  1  0  0  0  0
  8 23  1  0  0  0  0
  8 35  1  1  0  0  0
  9 10  1  0  0  0  0
 10 11  1  0  0  0  0
 10 15  1  0  0  0  0
 10 36  1  6  0  0  0
 11 12  1  0  0  0  0
 11 37  1  0  0  0  0
 11 38  1  0  0  0  0
 12 13  1  0  0  0  0
 12 14  2  0  0  0  0
 15 16  2  0  0  0  0
 15 17  1  0  0  0  0
 17 18  1  0  0  0  0
 17 23  1  0  0  0  0
 18 19  1  0  0  0  0
 18 21  1  0  0  0  0
 18 39  1  1  0  0  0
 19 20  1  0  0  0  0
 19 40  1  0  0  0  0
 19 41  1  0  0  0  0
 20 42  1  0  0  0  0
 20 43  1  0  0  0  0
 20 44  1  0  0  0  0
 21 22  1  0  0  0  0
 21 45  1  0  0  0  0
 21 46  1  0  0  0  0
 22 47  1  0  0  0  0
 23 24  1  0  0  0  0
 23 48  1  1  0  0  0
 24 25  2  0  0  0  0
 24 30  1  0  0  0  0
 25 26  1  0  0  0  0
 25 49  1  0  0  0  0
 26 27  2  0  0  0  0
 26 50  1  0  0  0  0
 27 28  1  0  0  0  0
 27 29  1  0  0  0  0
 29 30  2  0  0  0  0
 29 51  1  0  0  0  0
 30 52  1  0  0  0  0
M  CHG  1  13  -1
M  END
