4k19_ligand
 OpenBabel08222323353D

 79 82  0  0  1  0  0  0  0  0999 V2000
   31.0500   80.9770   64.2740 O   0  0  0  0  0  0  0  0  0  0  0  0
   30.1190   80.2830   64.6620 C   0  0  0  0  0  0  0  0  0  0  0  0
   28.9050   80.1280   63.7740 C   0  0  0  0  0  0  0  0  0  0  0  0
   28.5590   81.1590   62.9050 C   0  0  0  0  0  0  0  0  0  0  0  0
   27.4370   81.0410   62.0850 C   0  0  0  0  0  0  0  0  0  0  0  0
   26.6510   79.8980   62.1220 C   0  0  0  0  0  0  0  0  0  0  0  0
   27.0010   78.8730   62.9850 C   0  0  0  0  0  0  0  0  0  0  0  0
   26.2460   77.7430   63.0280 O   0  0  0  0  0  0  0  0  0  0  0  0
   28.1140   78.9870   63.8020 C   0  0  0  0  0  0  0  0  0  0  0  0
   28.4150   77.9540   64.6360 O   0  0  0  0  0  0  0  0  0  0  0  0
   30.1540   79.6900   65.8640 N   0  0  0  0  0  0  0  0  0  0  0  0
   31.2170   79.7100   66.8660 C   0  0  0  0  0  0  0  0  0  0  0  0
   30.5670   79.6260   68.2520 C   0  0  0  0  0  0  0  0  0  0  0  0
   30.3560   78.1800   68.7250 C   0  0  0  0  0  0  0  0  0  0  0  0
   30.1770   78.0630   70.1840 N   0  0  0  0  0  0  0  0  0  0  0  0
   30.3210   76.9220   70.8810 C   0  0  0  0  0  0  0  0  0  0  0  0
   30.1360   76.9150   72.0870 O   0  0  0  0  0  0  0  0  0  0  0  0
   30.6710   75.5880   70.2680 C   0  0  2  0  0  0  0  0  0  0  0  0
   32.1810   75.3200   70.2570 C   0  0  1  0  0  0  0  0  0  0  0  0
   32.6120   74.3550   71.3550 C   0  0  0  0  0  0  0  0  0  0  0  0
   32.4890   74.7500   68.9860 O   0  0  0  0  0  0  0  0  0  0  0  0
   30.3280   75.3880   68.8660 N   0  0  0  0  0  0  0  0  0  0  0  0
   31.2960   74.9500   68.1950 C   0  0  0  0  0  0  0  0  0  0  0  0
   31.2510   74.6620   66.7260 C   0  0  0  0  0  0  0  0  0  0  0  0
   30.2310   75.1550   65.9270 C   0  0  0  0  0  0  0  0  0  0  0  0
   29.2340   75.9390   66.4140 O   0  0  0  0  0  0  0  0  0  0  0  0
   30.2010   74.8620   64.5870 C   0  0  0  0  0  0  0  0  0  0  0  0
   29.1900   75.3850   63.8420 O   0  0  0  0  0  0  0  0  0  0  0  0
   31.1910   74.0690   64.0190 C   0  0  0  0  0  0  0  0  0  0  0  0
   32.2210   73.5710   64.8120 C   0  0  0  0  0  0  0  0  0  0  0  0
   32.2480   73.8700   66.1700 C   0  0  0  0  0  0  0  0  0  0  0  0
   29.8090   79.2740   70.9270 C   0  0  0  0  0  0  0  0  0  0  0  0
   28.3470   79.1330   71.3600 C   0  0  0  0  0  0  0  0  0  0  0  0
   27.3790   79.7230   70.3350 C   0  0  0  0  0  0  0  0  0  0  0  0
   26.8240   78.6070   69.5780 N   0  0  0  0  0  0  0  0  0  0  0  0
   25.5670   78.1650   69.6180 C   0  0  0  0  0  0  0  0  0  0  0  0
   24.7600   78.6700   70.3850 O   0  0  0  0  0  0  0  0  0  0  0  0
   25.1470   76.9920   68.7690 C   0  0  0  0  0  0  0  0  0  0  0  0
   25.8750   76.5790   67.6600 C   0  0  0  0  0  0  0  0  0  0  0  0
   27.0010   77.2390   67.2820 O   0  0  0  0  0  0  0  0  0  0  0  0
   25.4760   75.4690   66.9320 C   0  0  0  0  0  0  0  0  0  0  0  0
   26.2010   75.0660   65.8480 O   0  0  0  0  0  0  0  0  0  0  0  0
   24.3280   74.7720   67.2890 C   0  0  0  0  0  0  0  0  0  0  0  0
   23.5840   75.1870   68.3850 C   0  0  0  0  0  0  0  0  0  0  0  0
   23.9950   76.2920   69.1200 C   0  0  0  0  0  0  0  0  0  0  0  0
   29.1642   82.0574   62.8655 H   0  0  0  0  0  0  0  0  0  0  0  0
   27.1764   81.8500   61.4122 H   0  0  0  0  0  0  0  0  0  0  0  0
   25.7777   79.8089   61.4861 H   0  0  0  0  0  0  0  0  0  0  0  0
   26.6144   77.1414   63.6643 H   0  0  0  0  0  0  0  0  0  0  0  0
   28.5685   77.1691   64.1234 H   0  0  0  0  0  0  0  0  0  0  0  0
   29.3409   79.1615   66.1081 H   0  0  0  0  0  0  0  0  0  0  0  0
   31.7927   80.6434   66.7802 H   0  0  0  0  0  0  0  0  0  0  0  0
   31.8871   78.8507   66.7159 H   0  0  0  0  0  0  0  0  0  0  0  0
   29.5894   80.1288   68.2126 H   0  0  0  0  0  0  0  0  0  0  0  0
   31.2155   80.1412   68.9759 H   0  0  0  0  0  0  0  0  0  0  0  0
   31.2340   77.5854   68.4324 H   0  0  0  0  0  0  0  0  0  0  0  0
   29.4595   77.7782   68.2301 H   0  0  0  0  0  0  0  0  0  0  0  0
   30.1620   74.8208   70.8698 H   0  0  0  0  0  0  0  0  0  0  0  0
   32.7209   76.2698   70.3853 H   0  0  0  0  0  0  0  0  0  0  0  0
   33.6996   74.1996   71.3004 H   0  0  0  0  0  0  0  0  0  0  0  0
   32.0969   73.3925   71.2202 H   0  0  0  0  0  0  0  0  0  0  0  0
   32.3507   74.7764   72.3369 H   0  0  0  0  0  0  0  0  0  0  0  0
   28.6403   76.1688   65.7089 H   0  0  0  0  0  0  0  0  0  0  0  0
   29.2224   76.3333   63.8875 H   0  0  0  0  0  0  0  0  0  0  0  0
   31.1611   73.8387   62.9602 H   0  0  0  0  0  0  0  0  0  0  0  0
   32.9972   72.9540   64.3738 H   0  0  0  0  0  0  0  0  0  0  0  0
   33.0464   73.4854   66.7943 H   0  0  0  0  0  0  0  0  0  0  0  0
   29.9245   80.1578   70.2824 H   0  0  0  0  0  0  0  0  0  0  0  0
   30.4528   79.3795   71.8127 H   0  0  0  0  0  0  0  0  0  0  0  0
   28.2098   79.6559   72.3180 H   0  0  0  0  0  0  0  0  0  0  0  0
   28.1177   78.0649   71.4891 H   0  0  0  0  0  0  0  0  0  0  0  0
   27.9145   80.4073   69.6605 H   0  0  0  0  0  0  0  0  0  0  0  0
   26.5733   80.2691   70.8475 H   0  0  0  0  0  0  0  0  0  0  0  0
   27.4504   78.1239   68.9663 H   0  0  0  0  0  0  0  0  0  0  0  0
   27.3666   76.8229   66.5102 H   0  0  0  0  0  0  0  0  0  0  0  0
   27.0863   74.8558   66.1209 H   0  0  0  0  0  0  0  0  0  0  0  0
   24.0149   73.9080   66.7141 H   0  0  0  0  0  0  0  0  0  0  0  0
   22.6851   74.6505   68.6665 H   0  0  0  0  0  0  0  0  0  0  0  0
   23.4127   76.6130   69.9761 H   0  0  0  0  0  0  0  0  0  0  0  0
  1  2  2  0  0  0  0
  2  3  1  0  0  0  0
  2 11  1  0  0  0  0
  3  4  2  0  0  0  0
  3  9  1  0  0  0  0
  4  5  1  0  0  0  0
  4 46  1  0  0  0  0
  5  6  2  0  0  0  0
  5 47  1  0  0  0  0
  6  7  1  0  0  0  0
  6 48  1  0  0  0  0
  7  8  1  0  0  0  0
  7  9  2  0  0  0  0
  8 49  1  0  0  0  0
  9 10  1  0  0  0  0
 10 50  1  0  0  0  0
 11 12  1  0  0  0  0
 11 51  1  0  0  0  0
 12 13  1  0  0  0  0
 12 52  1  0  0  0  0
 12 53  1  0  0  0  0
 13 14  1  0  0  0  0
 13 54  1  0  0  0  0
 13 55  1  0  0  0  0
 14 15  1  0  0  0  0
 14 56  1  0  0  0  0
 14 57  1  0  0  0  0
 15 16  1  0  0  0  0
 15 32  1  0  0  0  0
 16 17  2  0  0  0  0
 16 18  1  0  0  0  0
 18 19  1  0  0  0  0
 18 22  1  0  0  0  0
 18 58  1  1  0  0  0
 19 20  1  0  0  0  0
 19 21  1  0  0  0  0
 19 59  1  1  0  0  0
 20 60  1  0  0  0  0
 20 61  1  0  0  0  0
 20 62  1  0  0  0  0
 21 23  1  0  0  0  0
 22 23  2  0  0  0  0
 23 24  1  0  0  0  0
 24 25  2  0  0  0  0
 24 31  1  0  0  0  0
 25 26  1  0  0  0  0
 25 27  1  0  0  0  0
 26 63  1  0  0  0  0
 27 28  1  0  0  0  0
 27 29  2  0  0  0  0
 28 64  1  0  0  0  0
 29 30  1  0  0  0  0
 29 65  1  0  0  0  0
 30 31  2  0  0  0  0
 30 66  1  0  0  0  0
 31 67  1  0  0  0  0
 32 33  1  0  0  0  0
 32 68  1  0  0  0  0
 32 69  1  0  0  0  0
 33 34  1  0  0  0  0
 33 70  1  0  0  0  0
 33 71  1  0  0  0  0
 34 35  1  0  0  0  0
 34 72  1  0  0  0  0
 34 73  1  0  0  0  0
 35 36  1  0  0  0  0
 35 74  1  0  0  0  0
 36 37  2  0  0  0  0
 36 38  1  0  0  0  0
 38 39  2  0  0  0  0
 38 45  1  0  0  0  0
 39 40  1  0  0  0  0
 39 41  1  0  0  0  0
 40 75  1  0  0  0  0
 41 42  1  0  0  0  0
 41 43  2  0  0  0  0
 42 76  1  0  0  0  0
 43 44  1  0  0  0  0
 43 77  1  0  0  0  0
 44 45  2  0  0  0  0
 44 78  1  0  0  0  0
 45 79  1  0  0  0  0
M  END
