4k3l_ligand
 OpenBabel08222323353D

 46 46  0  0  1  0  0  0  0  0999 V2000
    7.0820   -5.2850  -12.0340 N   0  0  0  0  0  0  0  0  0  0  0  0
    8.0100   -4.1660  -12.4340 C   0  0  2  0  0  0  0  0  0  0  0  0
    9.3740   -4.6330  -12.9460 C   0  0  0  0  0  0  0  0  0  0  0  0
   10.0620   -3.8770  -13.6240 O   0  0  0  0  0  0  0  0  0  0  0  0
    8.2330   -3.2130  -11.2510 C   0  0  0  0  0  0  0  0  0  0  0  0
    6.9900   -2.4790  -10.7580 C   0  0  0  0  0  0  0  0  0  0  0  0
    7.2860   -1.7340   -9.4640 C   0  0  0  0  0  0  0  0  0  0  0  0
    6.4680   -1.5160  -11.8120 C   0  0  0  0  0  0  0  0  0  0  0  0
    9.7630   -5.8480  -12.5620 N   0  0  0  0  0  0  0  0  0  0  0  0
   11.0280   -6.4710  -12.9470 C   0  0  2  0  0  0  0  0  0  0  0  0
   10.9230   -7.9790  -12.7190 C   0  0  0  0  0  0  0  0  0  0  0  0
    9.9330   -8.4760  -12.1690 O   0  5  0  0  0  0  0  0  0  0  0  0
   12.1790   -5.9030  -12.1090 C   0  0  0  0  0  0  0  0  0  0  0  0
   11.9180   -5.9430  -10.6320 C   0  0  0  0  0  0  0  0  0  0  0  0
   12.2040   -7.0850   -9.8920 C   0  0  0  0  0  0  0  0  0  0  0  0
   11.3650   -4.8470   -9.9830 C   0  0  0  0  0  0  0  0  0  0  0  0
   11.9500   -7.1310   -8.5360 C   0  0  0  0  0  0  0  0  0  0  0  0
   11.1110   -4.8870   -8.6230 C   0  0  0  0  0  0  0  0  0  0  0  0
   11.3980   -6.0300   -7.8970 C   0  0  0  0  0  0  0  0  0  0  0  0
   11.8400   -8.7450  -13.0390 O   0  0  0  0  0  0  0  0  0  0  0  0
    6.5460   -6.1540  -12.9280 C   0  0  0  0  0  0  0  0  0  0  0  0
    6.6840   -6.0130  -14.1410 O   0  0  0  0  0  0  0  0  0  0  0  0
    5.6740   -7.2780  -12.4110 C   0  0  0  0  0  0  0  0  0  0  0  0
    6.8512   -5.3916  -11.0668 H   0  0  0  0  0  0  0  0  0  0  0  0
    7.5210   -3.6074  -13.2456 H   0  0  0  0  0  0  0  0  0  0  0  0
    8.9729   -2.4590  -11.5576 H   0  0  0  0  0  0  0  0  0  0  0  0
    8.6345   -3.8011  -10.4126 H   0  0  0  0  0  0  0  0  0  0  0  0
    6.2079   -3.2258  -10.5565 H   0  0  0  0  0  0  0  0  0  0  0  0
    6.3787   -1.2122   -9.1256 H   0  0  0  0  0  0  0  0  0  0  0  0
    8.0873   -1.0007   -9.6381 H   0  0  0  0  0  0  0  0  0  0  0  0
    7.6058   -2.4506   -8.6932 H   0  0  0  0  0  0  0  0  0  0  0  0
    6.2585   -2.0672  -12.7406 H   0  0  0  0  0  0  0  0  0  0  0  0
    7.2243   -0.7416  -12.0079 H   0  0  0  0  0  0  0  0  0  0  0  0
    5.5434   -1.0424  -11.4503 H   0  0  0  0  0  0  0  0  0  0  0  0
    9.1479   -6.3691  -11.9703 H   0  0  0  0  0  0  0  0  0  0  0  0
   11.2233   -6.2729  -14.0112 H   0  0  0  0  0  0  0  0  0  0  0  0
   12.3428   -4.8565  -12.4057 H   0  0  0  0  0  0  0  0  0  0  0  0
   13.0855   -6.4898  -12.3187 H   0  0  0  0  0  0  0  0  0  0  0  0
   12.6317   -7.9498  -10.3861 H   0  0  0  0  0  0  0  0  0  0  0  0
   11.1300   -3.9515  -10.5469 H   0  0  0  0  0  0  0  0  0  0  0  0
   12.1816   -8.0265   -7.9708 H   0  0  0  0  0  0  0  0  0  0  0  0
   10.6868   -4.0222   -8.1258 H   0  0  0  0  0  0  0  0  0  0  0  0
   11.1923   -6.0649   -6.8333 H   0  0  0  0  0  0  0  0  0  0  0  0
    5.3216   -7.8872  -13.2564 H   0  0  0  0  0  0  0  0  0  0  0  0
    4.8094   -6.8558  -11.8778 H   0  0  0  0  0  0  0  0  0  0  0  0
    6.2572   -7.9079  -11.7232 H   0  0  0  0  0  0  0  0  0  0  0  0
  1  2  1  0  0  0  0
  1 21  1  0  0  0  0
  1 24  1  0  0  0  0
  2  3  1  0  0  0  0
  2  5  1  0  0  0  0
  2 25  1  6  0  0  0
  3  4  2  0  0  0  0
  3  9  1  0  0  0  0
  5  6  1  0  0  0  0
  5 26  1  0  0  0  0
  5 27  1  0  0  0  0
  6  7  1  0  0  0  0
  6  8  1  0  0  0  0
  6 28  1  0  0  0  0
  7 29  1  0  0  0  0
  7 30  1  0  0  0  0
  7 31  1  0  0  0  0
  8 32  1  0  0  0  0
  8 33  1  0  0  0  0
  8 34  1  0  0  0  0
  9 10  1  0  0  0  0
  9 35  1  0  0  0  0
 10 11  1  0  0  0  0
 10 13  1  0  0  0  0
 10 36  1  6  0  0  0
 11 12  1  0  0  0  0
 11 20  2  0  0  0  0
 13 14  1  0  0  0  0
 13 37  1  0  0  0  0
 13 38  1  0  0  0  0
 14 15  2  0  0  0  0
 14 16  1  0  0  0  0
 15 17  1  0  0  0  0
 15 39  1  0  0  0  0
 16 18  2  0  0  0  0
 16 40  1  0  0  0  0
 17 19  2  0  0  0  0
 17 41  1  0  0  0  0
 18 19  1  0  0  0  0
 18 42  1  0  0  0  0
 19 43  1  0  0  0  0
 21 22  2  0  0  0  0
 21 23  1  0  0  0  0
 23 44  1  0  0  0  0
 23 45  1  0  0  0  0
 23 46  1  0  0  0  0
M  CHG  1  12  -1
M  END
