4k3m_ligand
 OpenBabel08222323353D

 54 54  0  0  1  0  0  0  0  0999 V2000
    4.5050   -7.9690  -12.9220 N   0  3  0  0  0  0  0  0  0  0  0  0
    5.6810   -7.5810  -12.0950 C   0  0  2  0  0  0  0  0  0  0  0  0
    6.4020   -6.4190  -12.7850 C   0  0  0  0  0  0  0  0  0  0  0  0
    6.4230   -6.3440  -14.0210 O   0  0  0  0  0  0  0  0  0  0  0  0
    6.6250   -8.7780  -11.9310 C   0  0  0  0  0  0  0  0  0  0  0  0
    6.9250   -9.1070  -10.4640 C   0  0  0  0  0  0  0  0  0  0  0  0
    5.9670   -9.2900   -9.6770 O   0  5  0  0  0  0  0  0  0  0  0  0
    8.1200   -9.2100  -10.1020 O   0  0  0  0  0  0  0  0  0  0  0  0
    6.9830   -5.5160  -11.9900 N   0  0  0  0  0  0  0  0  0  0  0  0
    7.7360   -4.3640  -12.5160 C   0  0  2  0  0  0  0  0  0  0  0  0
    9.0830   -4.7740  -13.1170 C   0  0  0  0  0  0  0  0  0  0  0  0
    9.6850   -4.0200  -13.8830 O   0  0  0  0  0  0  0  0  0  0  0  0
    7.9710   -3.3160  -11.4160 C   0  0  0  0  0  0  0  0  0  0  0  0
    6.8370   -2.3740  -11.0020 C   0  0  0  0  0  0  0  0  0  0  0  0
    7.2140   -1.6070   -9.7430 C   0  0  0  0  0  0  0  0  0  0  0  0
    6.4870   -1.4020  -12.1190 C   0  0  0  0  0  0  0  0  0  0  0  0
    9.5430   -5.9700  -12.7510 N   0  0  0  0  0  0  0  0  0  0  0  0
   10.8580   -6.4770  -13.1450 C   0  0  2  0  0  0  0  0  0  0  0  0
   10.9180   -7.9920  -12.9480 C   0  0  0  0  0  0  0  0  0  0  0  0
   10.0060   -8.6010  -12.3900 O   0  5  0  0  0  0  0  0  0  0  0  0
   11.9750   -5.8020  -12.3290 C   0  0  0  0  0  0  0  0  0  0  0  0
   11.7880   -5.9090  -10.8380 C   0  0  0  0  0  0  0  0  0  0  0  0
   12.1670   -7.0640  -10.1500 C   0  0  0  0  0  0  0  0  0  0  0  0
   11.2220   -4.8590  -10.1230 C   0  0  0  0  0  0  0  0  0  0  0  0
   11.9880   -7.1640   -8.7770 C   0  0  0  0  0  0  0  0  0  0  0  0
   11.0380   -4.9530   -8.7540 C   0  0  0  0  0  0  0  0  0  0  0  0
   11.4250   -6.1040   -8.0800 C   0  0  0  0  0  0  0  0  0  0  0  0
   11.8910   -8.6430  -13.3210 O   0  0  0  0  0  0  0  0  0  0  0  0
    4.0204   -8.7339  -12.4791 H   0  0  0  0  0  0  0  0  0  0  0  0
    4.8171   -8.2539  -13.8371 H   0  0  0  0  0  0  0  0  0  0  0  0
    3.8814   -7.1819  -13.0096 H   0  0  0  0  0  0  0  0  0  0  0  0
    5.3377   -7.2569  -11.1015 H   0  0  0  0  0  0  0  0  0  0  0  0
    7.5730   -8.5493  -12.4399 H   0  0  0  0  0  0  0  0  0  0  0  0
    6.1602   -9.6579  -12.3997 H   0  0  0  0  0  0  0  0  0  0  0  0
    6.9037   -5.6263  -10.9993 H   0  0  0  0  0  0  0  0  0  0  0  0
    7.1326   -3.9030  -13.3118 H   0  0  0  0  0  0  0  0  0  0  0  0
    8.8034   -2.6815  -11.7543 H   0  0  0  0  0  0  0  0  0  0  0  0
    8.2729   -3.8660  -10.5125 H   0  0  0  0  0  0  0  0  0  0  0  0
    5.9474   -2.9834  -10.7845 H   0  0  0  0  0  0  0  0  0  0  0  0
    6.3887   -0.9365   -9.4612 H   0  0  0  0  0  0  0  0  0  0  0  0
    8.1202   -1.0132   -9.9329 H   0  0  0  0  0  0  0  0  0  0  0  0
    7.4055   -2.3168   -8.9247 H   0  0  0  0  0  0  0  0  0  0  0  0
    6.2161   -1.9656  -13.0240 H   0  0  0  0  0  0  0  0  0  0  0  0
    7.3549   -0.7608  -12.3325 H   0  0  0  0  0  0  0  0  0  0  0  0
    5.6369   -0.7769  -11.8082 H   0  0  0  0  0  0  0  0  0  0  0  0
    8.9615   -6.5490  -12.1795 H   0  0  0  0  0  0  0  0  0  0  0  0
   11.0155   -6.2515  -14.2100 H   0  0  0  0  0  0  0  0  0  0  0  0
   12.0061   -4.7361  -12.5990 H   0  0  0  0  0  0  0  0  0  0  0  0
   12.9321   -6.2753  -12.5933 H   0  0  0  0  0  0  0  0  0  0  0  0
   12.6061   -7.8921  -10.6946 H   0  0  0  0  0  0  0  0  0  0  0  0
   10.9215   -3.9568  -10.6434 H   0  0  0  0  0  0  0  0  0  0  0  0
   12.2861   -8.0645   -8.2524 H   0  0  0  0  0  0  0  0  0  0  0  0
   10.5923   -4.1290   -8.2087 H   0  0  0  0  0  0  0  0  0  0  0  0
   11.2870   -6.1747   -7.0071 H   0  0  0  0  0  0  0  0  0  0  0  0
  1  2  1  0  0  0  0
  1 29  1  0  0  0  0
  1 30  1  0  0  0  0
  1 31  1  0  0  0  0
  2  3  1  0  0  0  0
  2  5  1  0  0  0  0
  2 32  1  1  0  0  0
  3  4  2  0  0  0  0
  3  9  1  0  0  0  0
  5  6  1  0  0  0  0
  5 33  1  0  0  0  0
  5 34  1  0  0  0  0
  6  7  1  0  0  0  0
  6  8  2  0  0  0  0
  9 10  1  0  0  0  0
  9 35  1  0  0  0  0
 10 11  1  0  0  0  0
 10 13  1  0  0  0  0
 10 36  1  6  0  0  0
 11 12  2  0  0  0  0
 11 17  1  0  0  0  0
 13 14  1  0  0  0  0
 13 37  1  0  0  0  0
 13 38  1  0  0  0  0
 14 15  1  0  0  0  0
 14 16  1  0  0  0  0
 14 39  1  0  0  0  0
 15 40  1  0  0  0  0
 15 41  1  0  0  0  0
 15 42  1  0  0  0  0
 16 43  1  0  0  0  0
 16 44  1  0  0  0  0
 16 45  1  0  0  0  0
 17 18  1  0  0  0  0
 17 46  1  0  0  0  0
 18 19  1  0  0  0  0
 18 21  1  0  0  0  0
 18 47  1  6  0  0  0
 19 20  1  0  0  0  0
 19 28  2  0  0  0  0
 21 22  1  0  0  0  0
 21 48  1  0  0  0  0
 21 49  1  0  0  0  0
 22 23  2  0  0  0  0
 22 24  1  0  0  0  0
 23 25  1  0  0  0  0
 23 50  1  0  0  0  0
 24 26  2  0  0  0  0
 24 51  1  0  0  0  0
 25 27  2  0  0  0  0
 25 52  1  0  0  0  0
 26 27  1  0  0  0  0
 26 53  1  0  0  0  0
 27 54  1  0  0  0  0
M  CHG  3   1   1   7  -1  20  -1
M  END
