4k3o_ligand
 OpenBabel08222323353D

 88 88  0  0  1  0  0  0  0  0999 V2000
   -3.5710   -8.3800  -12.4820 C   0  0  1  0  0  0  0  0  0  0  0  0
   -3.0330   -8.0190  -13.5260 O   0  0  0  0  0  0  0  0  0  0  0  0
   -4.6260   -9.4640  -12.6540 C   0  0  0  0  0  0  0  0  0  0  0  0
   -2.7200   -8.6680  -11.4590 N   0  3  0  0  0  0  0  0  0  0  0  0
   -1.5010   -7.8460  -11.1080 C   0  0  2  0  0  0  0  0  0  0  0  0
   -0.2870   -8.2140  -11.9600 C   0  0  0  0  0  0  0  0  0  0  0  0
    0.1240   -9.3770  -11.9840 O   0  0  0  0  0  0  0  0  0  0  0  0
   -1.1330   -8.0280   -9.6300 C   0  0  0  0  0  0  0  0  0  0  0  0
    0.0630   -7.1990   -9.1750 C   0  0  0  0  0  0  0  0  0  0  0  0
   -0.1810   -5.7100   -9.3170 C   0  0  0  0  0  0  0  0  0  0  0  0
   -1.2000   -5.2000   -8.8590 O   0  0  0  0  0  0  0  0  0  0  0  0
    0.7430   -5.0060   -9.9640 N   0  0  0  0  0  0  0  0  0  0  0  0
    0.2900   -7.2100  -12.6250 N   0  0  0  0  0  0  0  0  0  0  0  0
    1.5050   -7.3770  -13.4270 C   0  0  2  0  0  0  0  0  0  0  0  0
    2.7270   -6.9350  -12.6270 C   0  0  0  0  0  0  0  0  0  0  0  0
    2.5900   -6.2540  -11.6110 O   0  0  0  0  0  0  0  0  0  0  0  0
    1.3990   -6.5770  -14.7210 C   0  0  0  0  0  0  0  0  0  0  0  0
    3.9200   -7.3100  -13.0920 N   0  0  0  0  0  0  0  0  0  0  0  0
    5.1560   -7.0470  -12.3430 C   0  0  2  0  0  0  0  0  0  0  0  0
    6.0770   -6.0330  -13.0000 C   0  0  0  0  0  0  0  0  0  0  0  0
    6.0930   -5.8920  -14.2250 O   0  0  0  0  0  0  0  0  0  0  0  0
    5.9140   -8.3490  -12.0900 C   0  0  0  0  0  0  0  0  0  0  0  0
    5.4390   -9.0470  -10.8350 C   0  0  0  0  0  0  0  0  0  0  0  0
    4.2210   -9.3070  -10.7320 O   0  5  0  0  0  0  0  0  0  0  0  0
    6.2760   -9.3100   -9.9430 O   0  0  0  0  0  0  0  0  0  0  0  0
    6.8480   -5.3390  -12.1590 N   0  0  0  0  0  0  0  0  0  0  0  0
    7.7780   -4.2890  -12.5920 C   0  0  2  0  0  0  0  0  0  0  0  0
    9.0450   -4.8340  -13.2280 C   0  0  0  0  0  0  0  0  0  0  0  0
    9.6710   -4.1470  -14.0360 O   0  0  0  0  0  0  0  0  0  0  0  0
    8.1630   -3.3820  -11.4050 C   0  0  0  0  0  0  0  0  0  0  0  0
    7.1020   -2.4170  -10.8700 C   0  0  0  0  0  0  0  0  0  0  0  0
    7.5050   -1.8990   -9.4950 C   0  0  0  0  0  0  0  0  0  0  0  0
    6.8700   -1.2500  -11.8240 C   0  0  0  0  0  0  0  0  0  0  0  0
    9.4200   -6.0520  -12.8460 N   0  0  0  0  0  0  0  0  0  0  0  0
   10.6830   -6.6540  -13.2520 C   0  0  2  0  0  0  0  0  0  0  0  0
   10.7000   -8.1380  -12.8940 C   0  0  0  0  0  0  0  0  0  0  0  0
    9.7670   -8.6770  -12.2940 O   0  5  0  0  0  0  0  0  0  0  0  0
   11.8530   -5.9690  -12.5340 C   0  0  0  0  0  0  0  0  0  0  0  0
   11.7450   -6.0020  -11.0240 C   0  0  0  0  0  0  0  0  0  0  0  0
   12.1520   -7.1150  -10.3050 C   0  0  0  0  0  0  0  0  0  0  0  0
   11.2150   -4.9230  -10.3310 C   0  0  0  0  0  0  0  0  0  0  0  0
   12.0480   -7.1490   -8.9240 C   0  0  0  0  0  0  0  0  0  0  0  0
   11.1020   -4.9490   -8.9520 C   0  0  0  0  0  0  0  0  0  0  0  0
   11.5190   -6.0620   -8.2470 C   0  0  0  0  0  0  0  0  0  0  0  0
   11.6910   -8.8110  -13.1610 O   0  0  0  0  0  0  0  0  0  0  0  0
   -4.1275   -7.4935  -12.1439 H   0  0  0  0  0  0  0  0  0  0  0  0
   -3.6994   -7.8410  -14.1792 H   0  0  0  0  0  0  0  0  0  0  0  0
   -5.0502   -9.7218  -11.6724 H   0  0  0  0  0  0  0  0  0  0  0  0
   -4.1645  -10.3574  -13.1000 H   0  0  0  0  0  0  0  0  0  0  0  0
   -5.4256   -9.0961  -13.3138 H   0  0  0  0  0  0  0  0  0  0  0  0
   -2.3769   -9.5975  -11.6442 H   0  0  0  0  0  0  0  0  0  0  0  0
   -3.2890   -8.6794  -10.6270 H   0  0  0  0  0  0  0  0  0  0  0  0
   -1.7420   -6.7874  -11.2849 H   0  0  0  0  0  0  0  0  0  0  0  0
   -0.9006   -9.0898   -9.4610 H   0  0  0  0  0  0  0  0  0  0  0  0
   -2.0027   -7.7415   -9.0205 H   0  0  0  0  0  0  0  0  0  0  0  0
    0.9363   -7.4739   -9.7847 H   0  0  0  0  0  0  0  0  0  0  0  0
    0.2680   -7.4245   -8.1181 H   0  0  0  0  0  0  0  0  0  0  0  0
    0.6274   -4.0199  -10.0837 H   0  0  0  0  0  0  0  0  0  0  0  0
    1.5535   -5.4626  -10.3309 H   0  0  0  0  0  0  0  0  0  0  0  0
   -0.1263   -6.3022  -12.5733 H   0  0  0  0  0  0  0  0  0  0  0  0
    1.6164   -8.4416  -13.6803 H   0  0  0  0  0  0  0  0  0  0  0  0
    2.3171   -6.7120  -15.3117 H   0  0  0  0  0  0  0  0  0  0  0  0
    1.2693   -5.5108  -14.4834 H   0  0  0  0  0  0  0  0  0  0  0  0
    0.5342   -6.9312  -15.3013 H   0  0  0  0  0  0  0  0  0  0  0  0
    3.9741   -7.7817  -13.9721 H   0  0  0  0  0  0  0  0  0  0  0  0
    4.8603   -6.6330  -11.3678 H   0  0  0  0  0  0  0  0  0  0  0  0
    6.9852   -8.1218  -11.9860 H   0  0  0  0  0  0  0  0  0  0  0  0
    5.7631   -9.0202  -12.9483 H   0  0  0  0  0  0  0  0  0  0  0  0
    6.7887   -5.5456  -11.1824 H   0  0  0  0  0  0  0  0  0  0  0  0
    7.2596   -3.6759  -13.3439 H   0  0  0  0  0  0  0  0  0  0  0  0
    9.0265   -2.7779  -11.7204 H   0  0  0  0  0  0  0  0  0  0  0  0
    8.4587   -4.0382  -10.5732 H   0  0  0  0  0  0  0  0  0  0  0  0
    6.1565   -2.9700  -10.7694 H   0  0  0  0  0  0  0  0  0  0  0  0
    6.7344   -1.2076   -9.1234 H   0  0  0  0  0  0  0  0  0  0  0  0
    8.4667   -1.3703   -9.5697 H   0  0  0  0  0  0  0  0  0  0  0  0
    7.6048   -2.7451   -8.7992 H   0  0  0  0  0  0  0  0  0  0  0  0
    6.5799   -1.6364  -12.8122 H   0  0  0  0  0  0  0  0  0  0  0  0
    7.7955   -0.6629  -11.9171 H   0  0  0  0  0  0  0  0  0  0  0  0
    6.0672   -0.6090  -11.4309 H   0  0  0  0  0  0  0  0  0  0  0  0
    8.8083   -6.5772  -12.2544 H   0  0  0  0  0  0  0  0  0  0  0  0
   10.8030   -6.5385  -14.3393 H   0  0  0  0  0  0  0  0  0  0  0  0
   11.8906   -4.9180  -12.8564 H   0  0  0  0  0  0  0  0  0  0  0  0
   12.7844   -6.4759  -12.8265 H   0  0  0  0  0  0  0  0  0  0  0  0
   12.5577   -7.9715  -10.8312 H   0  0  0  0  0  0  0  0  0  0  0  0
   10.8847   -4.0471  -10.8777 H   0  0  0  0  0  0  0  0  0  0  0  0
   12.3793   -8.0230   -8.3750 H   0  0  0  0  0  0  0  0  0  0  0  0
   10.6869   -4.0973   -8.4254 H   0  0  0  0  0  0  0  0  0  0  0  0
   11.4324   -6.0846   -7.1667 H   0  0  0  0  0  0  0  0  0  0  0  0
  1  2  1  0  0  0  0
  1  3  1  0  0  0  0
  1  4  1  0  0  0  0
  1 46  1  1  0  0  0
  2 47  1  0  0  0  0
  3 48  1  0  0  0  0
  3 49  1  0  0  0  0
  3 50  1  0  0  0  0
  4  5  1  0  0  0  0
  4 51  1  0  0  0  0
  4 52  1  0  0  0  0
  5  6  1  0  0  0  0
  5  8  1  0  0  0  0
  5 53  1  6  0  0  0
  6  7  2  0  0  0  0
  6 13  1  0  0  0  0
  8  9  1  0  0  0  0
  8 54  1  0  0  0  0
  8 55  1  0  0  0  0
  9 10  1  0  0  0  0
  9 56  1  0  0  0  0
  9 57  1  0  0  0  0
 10 11  2  0  0  0  0
 10 12  1  0  0  0  0
 12 58  1  0  0  0  0
 12 59  1  0  0  0  0
 13 14  1  0  0  0  0
 13 60  1  0  0  0  0
 14 15  1  0  0  0  0
 14 17  1  0  0  0  0
 14 61  1  6  0  0  0
 15 16  2  0  0  0  0
 15 18  1  0  0  0  0
 17 62  1  0  0  0  0
 17 63  1  0  0  0  0
 17 64  1  0  0  0  0
 18 19  1  0  0  0  0
 18 65  1  0  0  0  0
 19 20  1  0  0  0  0
 19 22  1  0  0  0  0
 19 66  1  1  0  0  0
 20 21  2  0  0  0  0
 20 26  1  0  0  0  0
 22 23  1  0  0  0  0
 22 67  1  0  0  0  0
 22 68  1  0  0  0  0
 23 24  1  0  0  0  0
 23 25  2  0  0  0  0
 26 27  1  0  0  0  0
 26 69  1  0  0  0  0
 27 28  1  0  0  0  0
 27 30  1  0  0  0  0
 27 70  1  6  0  0  0
 28 29  2  0  0  0  0
 28 34  1  0  0  0  0
 30 31  1  0  0  0  0
 30 71  1  0  0  0  0
 30 72  1  0  0  0  0
 31 32  1  0  0  0  0
 31 33  1  0  0  0  0
 31 73  1  0  0  0  0
 32 74  1  0  0  0  0
 32 75  1  0  0  0  0
 32 76  1  0  0  0  0
 33 77  1  0  0  0  0
 33 78  1  0  0  0  0
 33 79  1  0  0  0  0
 34 35  1  0  0  0  0
 34 80  1  0  0  0  0
 35 36  1  0  0  0  0
 35 38  1  0  0  0  0
 35 81  1  6  0  0  0
 36 37  1  0  0  0  0
 36 45  2  0  0  0  0
 38 39  1  0  0  0  0
 38 82  1  0  0  0  0
 38 83  1  0  0  0  0
 39 40  2  0  0  0  0
 39 41  1  0  0  0  0
 40 42  1  0  0  0  0
 40 84  1  0  0  0  0
 41 43  2  0  0  0  0
 41 85  1  0  0  0  0
 42 44  2  0  0  0  0
 42 86  1  0  0  0  0
 43 44  1  0  0  0  0
 43 87  1  0  0  0  0
 44 88  1  0  0  0  0
M  CHG  3   4   1  24  -1  37  -1
M  END
