4k3q_ligand
 OpenBabel08222323353D

 85 85  0  0  1  0  0  0  0  0999 V2000
   -3.2100   -8.2930  -12.9970 C   0  0  0  0  0  0  0  0  0  0  0  0
   -2.7470   -7.6390  -13.9210 O   0  0  0  0  0  0  0  0  0  0  0  0
   -4.5030   -9.0510  -13.1910 C   0  0  0  0  0  0  0  0  0  0  0  0
   -2.7350   -8.2720  -11.7470 N   0  0  0  0  0  0  0  0  0  0  0  0
   -1.5580   -7.4560  -11.3110 C   0  0  2  0  0  0  0  0  0  0  0  0
   -0.3050   -7.7500  -12.1350 C   0  0  0  0  0  0  0  0  0  0  0  0
    0.1440   -8.8990  -12.2130 O   0  0  0  0  0  0  0  0  0  0  0  0
   -1.2590   -7.6850   -9.8230 C   0  0  0  0  0  0  0  0  0  0  0  0
   -0.0290   -6.9330   -9.3170 C   0  0  0  0  0  0  0  0  0  0  0  0
   -0.1840   -5.4280   -9.4350 C   0  0  0  0  0  0  0  0  0  0  0  0
   -1.1490   -4.8550   -8.9320 O   0  0  0  0  0  0  0  0  0  0  0  0
    0.7630   -4.7820  -10.1120 N   0  0  0  0  0  0  0  0  0  0  0  0
    0.2590   -6.7010  -12.7300 N   0  0  0  0  0  0  0  0  0  0  0  0
    1.4840   -6.8270  -13.5200 C   0  0  2  0  0  0  0  0  0  0  0  0
    2.7410   -6.6350  -12.6600 C   0  0  0  0  0  0  0  0  0  0  0  0
    2.6740   -6.0670  -11.5660 O   0  0  0  0  0  0  0  0  0  0  0  0
    1.4580   -5.8700  -14.7250 C   0  0  0  0  0  0  0  0  0  0  0  0
    0.3620   -6.1110  -15.7770 C   0  0  0  0  0  0  0  0  0  0  0  0
    0.4220   -5.0740  -16.8890 C   0  0  0  0  0  0  0  0  0  0  0  0
    0.4390   -7.5210  -16.3570 C   0  0  0  0  0  0  0  0  0  0  0  0
    3.8760   -7.1320  -13.1540 N   0  0  0  0  0  0  0  0  0  0  0  0
    5.1530   -7.0440  -12.4370 C   0  0  2  0  0  0  0  0  0  0  0  0
    6.0070   -5.8990  -12.9710 C   0  0  0  0  0  0  0  0  0  0  0  0
    5.9400   -5.5670  -14.1600 O   0  0  0  0  0  0  0  0  0  0  0  0
    5.9290   -8.3640  -12.5330 C   0  0  0  0  0  0  0  0  0  0  0  0
    5.1850   -9.5330  -11.9000 C   0  0  0  0  0  0  0  0  0  0  0  0
    4.6500   -9.3740  -10.7800 O   0  5  0  0  0  0  0  0  0  0  0  0
    5.1450  -10.6190  -12.5210 O   0  0  0  0  0  0  0  0  0  0  0  0
    6.8120   -5.3100  -12.0850 N   0  0  0  0  0  0  0  0  0  0  0  0
    7.6820   -4.1760  -12.4230 C   0  0  2  0  0  0  0  0  0  0  0  0
    8.9610   -4.5870  -13.1520 C   0  0  0  0  0  0  0  0  0  0  0  0
    9.4930   -3.8280  -13.9630 O   0  0  0  0  0  0  0  0  0  0  0  0
    8.0200   -3.3790  -11.1650 C   0  0  0  0  0  0  0  0  0  0  0  0
    9.4390   -5.7920  -12.8500 N   0  0  0  0  0  0  0  0  0  0  0  0
   10.7260   -6.2850  -13.3360 C   0  0  2  0  0  0  0  0  0  0  0  0
   10.7680   -7.8070  -13.2310 C   0  0  0  0  0  0  0  0  0  0  0  0
    9.8320   -8.4350  -12.7250 O   0  5  0  0  0  0  0  0  0  0  0  0
   11.8790   -5.6790  -12.5160 C   0  0  0  0  0  0  0  0  0  0  0  0
   11.7010   -5.8190  -11.0250 C   0  0  0  0  0  0  0  0  0  0  0  0
   12.0030   -7.0180  -10.3780 C   0  0  0  0  0  0  0  0  0  0  0  0
   11.2150   -4.7550  -10.2710 C   0  0  0  0  0  0  0  0  0  0  0  0
   11.8240   -7.1510   -9.0100 C   0  0  0  0  0  0  0  0  0  0  0  0
   11.0350   -4.8800   -8.9040 C   0  0  0  0  0  0  0  0  0  0  0  0
   11.3430   -6.0780   -8.2720 C   0  0  0  0  0  0  0  0  0  0  0  0
   11.7490   -8.4410  -13.6260 O   0  0  0  0  0  0  0  0  0  0  0  0
   -4.7629   -9.5768  -12.2604 H   0  0  0  0  0  0  0  0  0  0  0  0
   -4.3809   -9.7824  -14.0035 H   0  0  0  0  0  0  0  0  0  0  0  0
   -5.3062   -8.3456  -13.4502 H   0  0  0  0  0  0  0  0  0  0  0  0
   -3.1945   -8.8363  -11.0611 H   0  0  0  0  0  0  0  0  0  0  0  0
   -1.8153   -6.3959  -11.4522 H   0  0  0  0  0  0  0  0  0  0  0  0
   -1.0970   -8.7613   -9.6637 H   0  0  0  0  0  0  0  0  0  0  0  0
   -2.1312   -7.3551   -9.2395 H   0  0  0  0  0  0  0  0  0  0  0  0
    0.8445   -7.2458   -9.9078 H   0  0  0  0  0  0  0  0  0  0  0  0
    0.1323   -7.1899   -8.2597 H   0  0  0  0  0  0  0  0  0  0  0  0
    0.7109   -3.7893  -10.2208 H   0  0  0  0  0  0  0  0  0  0  0  0
    1.5264   -5.2895  -10.5117 H   0  0  0  0  0  0  0  0  0  0  0  0
   -0.1668   -5.8013  -12.6342 H   0  0  0  0  0  0  0  0  0  0  0  0
    1.5156   -7.8527  -13.9162 H   0  0  0  0  0  0  0  0  0  0  0  0
    2.4304   -5.9481  -15.2333 H   0  0  0  0  0  0  0  0  0  0  0  0
    1.3281   -4.8491  -14.3367 H   0  0  0  0  0  0  0  0  0  0  0  0
   -0.6104   -6.0081  -15.2732 H   0  0  0  0  0  0  0  0  0  0  0  0
   -0.3733   -5.2757  -17.6217 H   0  0  0  0  0  0  0  0  0  0  0  0
    1.4013   -5.1267  -17.3871 H   0  0  0  0  0  0  0  0  0  0  0  0
    0.2812   -4.0700  -16.4621 H   0  0  0  0  0  0  0  0  0  0  0  0
    0.3943   -8.2564  -15.5402 H   0  0  0  0  0  0  0  0  0  0  0  0
    1.3844   -7.6404  -16.9065 H   0  0  0  0  0  0  0  0  0  0  0  0
   -0.4063   -7.6823  -17.0422 H   0  0  0  0  0  0  0  0  0  0  0  0
    3.8557   -7.5817  -14.0470 H   0  0  0  0  0  0  0  0  0  0  0  0
    4.9360   -6.8470  -11.3768 H   0  0  0  0  0  0  0  0  0  0  0  0
    6.8943   -8.2424  -12.0198 H   0  0  0  0  0  0  0  0  0  0  0  0
    6.1043   -8.5924  -13.5947 H   0  0  0  0  0  0  0  0  0  0  0  0
    6.8236   -5.6568  -11.1471 H   0  0  0  0  0  0  0  0  0  0  0  0
    7.1163   -3.5185  -13.0995 H   0  0  0  0  0  0  0  0  0  0  0  0
    8.6713   -2.5333  -11.4307 H   0  0  0  0  0  0  0  0  0  0  0  0
    8.5395   -4.0303  -10.4468 H   0  0  0  0  0  0  0  0  0  0  0  0
    7.0927   -2.9992  -10.7114 H   0  0  0  0  0  0  0  0  0  0  0  0
    8.8915   -6.3882  -12.2628 H   0  0  0  0  0  0  0  0  0  0  0  0
   10.8451   -5.9933  -14.3899 H   0  0  0  0  0  0  0  0  0  0  0  0
   11.9522   -4.6085  -12.7580 H   0  0  0  0  0  0  0  0  0  0  0  0
   12.8127   -6.1846  -12.8033 H   0  0  0  0  0  0  0  0  0  0  0  0
   12.3822   -7.8555  -10.9523 H   0  0  0  0  0  0  0  0  0  0  0  0
   10.9746   -3.8177  -10.7596 H   0  0  0  0  0  0  0  0  0  0  0  0
   12.0585   -8.0884   -8.5187 H   0  0  0  0  0  0  0  0  0  0  0  0
   10.6544   -4.0444   -8.3279 H   0  0  0  0  0  0  0  0  0  0  0  0
   11.2076   -6.1752   -7.2009 H   0  0  0  0  0  0  0  0  0  0  0  0
  1  2  2  0  0  0  0
  1  3  1  0  0  0  0
  1  4  1  0  0  0  0
  3 46  1  0  0  0  0
  3 47  1  0  0  0  0
  3 48  1  0  0  0  0
  4  5  1  0  0  0  0
  4 49  1  0  0  0  0
  5  6  1  0  0  0  0
  5  8  1  0  0  0  0
  5 50  1  6  0  0  0
  6  7  2  0  0  0  0
  6 13  1  0  0  0  0
  8  9  1  0  0  0  0
  8 51  1  0  0  0  0
  8 52  1  0  0  0  0
  9 10  1  0  0  0  0
  9 53  1  0  0  0  0
  9 54  1  0  0  0  0
 10 11  2  0  0  0  0
 10 12  1  0  0  0  0
 12 55  1  0  0  0  0
 12 56  1  0  0  0  0
 13 14  1  0  0  0  0
 13 57  1  0  0  0  0
 14 15  1  0  0  0  0
 14 17  1  0  0  0  0
 14 58  1  6  0  0  0
 15 16  2  0  0  0  0
 15 21  1  0  0  0  0
 17 18  1  0  0  0  0
 17 59  1  0  0  0  0
 17 60  1  0  0  0  0
 18 19  1  0  0  0  0
 18 20  1  0  0  0  0
 18 61  1  0  0  0  0
 19 62  1  0  0  0  0
 19 63  1  0  0  0  0
 19 64  1  0  0  0  0
 20 65  1  0  0  0  0
 20 66  1  0  0  0  0
 20 67  1  0  0  0  0
 21 22  1  0  0  0  0
 21 68  1  0  0  0  0
 22 23  1  0  0  0  0
 22 25  1  0  0  0  0
 22 69  1  1  0  0  0
 23 24  2  0  0  0  0
 23 29  1  0  0  0  0
 25 26  1  0  0  0  0
 25 70  1  0  0  0  0
 25 71  1  0  0  0  0
 26 27  1  0  0  0  0
 26 28  2  0  0  0  0
 29 30  1  0  0  0  0
 29 72  1  0  0  0  0
 30 31  1  0  0  0  0
 30 33  1  0  0  0  0
 30 73  1  6  0  0  0
 31 32  2  0  0  0  0
 31 34  1  0  0  0  0
 33 74  1  0  0  0  0
 33 75  1  0  0  0  0
 33 76  1  0  0  0  0
 34 35  1  0  0  0  0
 34 77  1  0  0  0  0
 35 36  1  0  0  0  0
 35 38  1  0  0  0  0
 35 78  1  6  0  0  0
 36 37  1  0  0  0  0
 36 45  2  0  0  0  0
 38 39  1  0  0  0  0
 38 79  1  0  0  0  0
 38 80  1  0  0  0  0
 39 40  2  0  0  0  0
 39 41  1  0  0  0  0
 40 42  1  0  0  0  0
 40 81  1  0  0  0  0
 41 43  2  0  0  0  0
 41 82  1  0  0  0  0
 42 44  2  0  0  0  0
 42 83  1  0  0  0  0
 43 44  1  0  0  0  0
 43 84  1  0  0  0  0
 44 85  1  0  0  0  0
M  CHG  2  27  -1  37  -1
M  END
