4k43_ligand
 OpenBabel08222323353D

 85 86  0  0  1  0  0  0  0  0999 V2000
  -30.8980  -19.0530   -4.2310 O   0  0  0  0  0  0  0  0  0  0  0  0
  -32.0030  -18.8060   -3.7540 C   0  0  0  0  0  0  0  0  0  0  0  0
  -32.1480  -17.8920   -2.7130 N   0  0  0  0  0  0  0  0  0  0  0  0
  -30.8990  -17.2540   -2.2370 C   0  0  0  0  0  0  0  0  0  0  0  0
  -33.4100  -17.5760   -2.1280 C   0  0  0  0  0  0  0  0  0  0  0  0
  -33.5710  -16.6200   -1.1860 C   0  0  0  0  0  0  0  0  0  0  0  0
  -34.8620  -16.3220   -0.4880 C   0  0  0  0  0  0  0  0  0  0  0  0
  -35.2830  -14.8180   -0.4820 C   0  0  1  0  0  0  0  0  0  0  0  0
  -34.3230  -14.1750    0.3160 O   0  0  0  0  0  0  0  0  0  0  0  0
  -34.8140  -13.6210    1.5050 C   0  0  0  0  0  0  0  0  0  0  0  0
  -35.2250  -14.1650   -1.9200 C   0  0  1  0  0  0  0  0  0  0  0  0
  -36.3810  -14.7220   -2.7570 C   0  0  0  0  0  0  0  0  0  0  0  0
  -35.2380  -12.6270   -1.9430 C   0  0  0  0  0  0  0  0  0  0  0  0
  -36.1800  -12.0270   -1.4520 O   0  0  0  0  0  0  0  0  0  0  0  0
  -34.1100  -11.7860   -2.5530 C   0  0  0  0  0  0  0  0  0  0  0  0
  -34.2500  -10.2490   -2.3490 C   0  0  0  0  0  0  0  0  0  0  0  0
  -33.0260   -9.3870   -2.7520 C   0  0  2  0  0  0  0  0  0  0  0  0
  -31.9410   -9.4780   -1.6860 C   0  0  0  0  0  0  0  0  0  0  0  0
  -33.3830   -7.8620   -2.9650 C   0  0  2  0  0  0  0  0  0  0  0  0
  -33.7270   -7.3690   -1.6970 O   0  0  0  0  0  0  0  0  0  0  0  0
  -32.8950   -6.3450   -1.2200 C   0  0  0  0  0  0  0  0  0  0  0  0
  -34.5980   -7.5380   -3.8980 C   0  0  2  0  0  0  0  0  0  0  0  0
  -34.4380   -8.1180   -5.2960 C   0  0  0  0  0  0  0  0  0  0  0  0
  -34.8570   -6.0000   -4.0130 C   0  0  2  0  0  0  0  0  0  0  0  0
  -35.8020   -5.7260   -5.1980 C   0  0  1  0  0  0  0  0  0  0  0  0
  -37.2060   -6.2850   -4.9590 C   0  0  0  0  0  0  0  0  0  0  0  0
  -35.8310   -4.1970   -5.3840 C   0  0  0  0  0  0  0  0  0  0  0  0
  -34.5150   -3.6660   -5.4610 O   0  0  0  0  0  0  0  0  0  0  0  0
  -33.7010   -3.9170   -4.3350 C   0  0  1  0  0  0  0  0  0  0  0  0
  -33.6310   -5.3220   -4.2130 O   0  0  0  0  0  0  0  0  0  0  0  0
  -32.3050   -3.2600   -4.5510 C   0  0  0  0  0  0  0  0  0  0  0  0
  -31.2530   -3.9570   -5.1740 C   0  0  0  0  0  0  0  0  0  0  0  0
  -29.9820   -3.4130   -5.3790 C   0  0  0  0  0  0  0  0  0  0  0  0
  -29.6920   -2.1170   -4.9600 C   0  0  0  0  0  0  0  0  0  0  0  0
  -30.7100   -1.3970   -4.3320 C   0  0  0  0  0  0  0  0  0  0  0  0
  -31.9790   -1.9690   -4.1370 C   0  0  0  0  0  0  0  0  0  0  0  0
  -28.4460   -1.5520   -5.1450 O   0  0  0  0  0  0  0  0  0  0  0  0
  -27.3600   -2.1800   -4.4860 C   0  0  0  0  0  0  0  0  0  0  0  0
  -32.8830  -19.3096   -4.1514 H   0  0  0  0  0  0  0  0  0  0  0  0
  -31.1323  -16.5561   -1.4194 H   0  0  0  0  0  0  0  0  0  0  0  0
  -30.4293  -16.7039   -3.0657 H   0  0  0  0  0  0  0  0  0  0  0  0
  -30.2078  -18.0281   -1.8723 H   0  0  0  0  0  0  0  0  0  0  0  0
  -34.2868  -18.1322   -2.4564 H   0  0  0  0  0  0  0  0  0  0  0  0
  -32.7003  -16.0244   -0.9155 H   0  0  0  0  0  0  0  0  0  0  0  0
  -34.7684  -16.6533    0.5567 H   0  0  0  0  0  0  0  0  0  0  0  0
  -35.6579  -16.8961   -0.9848 H   0  0  0  0  0  0  0  0  0  0  0  0
  -36.2934  -14.7057   -0.0620 H   0  0  0  0  0  0  0  0  0  0  0  0
  -33.9896  -13.1436    2.0549 H   0  0  0  0  0  0  0  0  0  0  0  0
  -35.2564  -14.4152    2.1243 H   0  0  0  0  0  0  0  0  0  0  0  0
  -35.5816  -12.8690    1.2696 H   0  0  0  0  0  0  0  0  0  0  0  0
  -34.2801  -14.4833   -2.3845 H   0  0  0  0  0  0  0  0  0  0  0  0
  -36.3539  -14.2761   -3.7622 H   0  0  0  0  0  0  0  0  0  0  0  0
  -37.3370  -14.4752   -2.2721 H   0  0  0  0  0  0  0  0  0  0  0  0
  -36.2821  -15.8146   -2.8378 H   0  0  0  0  0  0  0  0  0  0  0  0
  -34.0824  -11.9854   -3.6344 H   0  0  0  0  0  0  0  0  0  0  0  0
  -33.1614  -12.1055   -2.0969 H   0  0  0  0  0  0  0  0  0  0  0  0
  -34.4493  -10.0695   -1.2822 H   0  0  0  0  0  0  0  0  0  0  0  0
  -35.1098   -9.9090   -2.9449 H   0  0  0  0  0  0  0  0  0  0  0  0
  -32.6296   -9.7843   -3.6980 H   0  0  0  0  0  0  0  0  0  0  0  0
  -31.0802   -8.8621   -1.9855 H   0  0  0  0  0  0  0  0  0  0  0  0
  -31.6221  -10.5250   -1.5758 H   0  0  0  0  0  0  0  0  0  0  0  0
  -32.3374   -9.1125   -0.7272 H   0  0  0  0  0  0  0  0  0  0  0  0
  -32.4942   -7.3461   -3.3572 H   0  0  0  0  0  0  0  0  0  0  0  0
  -33.2407   -6.0248   -0.2260 H   0  0  0  0  0  0  0  0  0  0  0  0
  -32.9300   -5.4914   -1.9129 H   0  0  0  0  0  0  0  0  0  0  0  0
  -31.8620   -6.7159   -1.1470 H   0  0  0  0  0  0  0  0  0  0  0  0
  -35.4879   -7.9978   -3.4435 H   0  0  0  0  0  0  0  0  0  0  0  0
  -35.3179   -7.8592   -5.9032 H   0  0  0  0  0  0  0  0  0  0  0  0
  -34.3466   -9.2122   -5.2308 H   0  0  0  0  0  0  0  0  0  0  0  0
  -33.5340   -7.7018   -5.7644 H   0  0  0  0  0  0  0  0  0  0  0  0
  -35.3237   -5.6393   -3.0845 H   0  0  0  0  0  0  0  0  0  0  0  0
  -35.3932   -6.1969   -6.1042 H   0  0  0  0  0  0  0  0  0  0  0  0
  -37.8413   -6.0651   -5.8296 H   0  0  0  0  0  0  0  0  0  0  0  0
  -37.6388   -5.8181   -4.0620 H   0  0  0  0  0  0  0  0  0  0  0  0
  -37.1474   -7.3738   -4.8136 H   0  0  0  0  0  0  0  0  0  0  0  0
  -36.3530   -3.7410   -4.5298 H   0  0  0  0  0  0  0  0  0  0  0  0
  -36.3696   -3.9582   -6.3129 H   0  0  0  0  0  0  0  0  0  0  0  0
  -34.1594   -3.4909   -3.4304 H   0  0  0  0  0  0  0  0  0  0  0  0
  -31.4384   -4.9698   -5.5129 H   0  0  0  0  0  0  0  0  0  0  0  0
  -29.2162   -4.0043   -5.8678 H   0  0  0  0  0  0  0  0  0  0  0  0
  -30.5197   -0.3858   -3.9911 H   0  0  0  0  0  0  0  0  0  0  0  0
  -32.7407   -1.3783   -3.6411 H   0  0  0  0  0  0  0  0  0  0  0  0
  -26.4303   -1.6374   -4.7126 H   0  0  0  0  0  0  0  0  0  0  0  0
  -27.2717   -3.2198   -4.8338 H   0  0  0  0  0  0  0  0  0  0  0  0
  -27.5348   -2.1702   -3.4000 H   0  0  0  0  0  0  0  0  0  0  0  0
  1  2  2  0  0  0  0
  2  3  1  0  0  0  0
  2 39  1  0  0  0  0
  3  4  1  0  0  0  0
  3  5  1  0  0  0  0
  4 40  1  0  0  0  0
  4 41  1  0  0  0  0
  4 42  1  0  0  0  0
  5  6  2  0  0  0  0
  5 43  1  0  0  0  0
  6  7  1  0  0  0  0
  6 44  1  0  0  0  0
  7  8  1  0  0  0  0
  7 45  1  0  0  0  0
  7 46  1  0  0  0  0
  8  9  1  0  0  0  0
  8 11  1  0  0  0  0
  8 47  1  1  0  0  0
  9 10  1  0  0  0  0
 10 48  1  0  0  0  0
 10 49  1  0  0  0  0
 10 50  1  0  0  0  0
 11 12  1  0  0  0  0
 11 13  1  0  0  0  0
 11 51  1  6  0  0  0
 12 52  1  0  0  0  0
 12 53  1  0  0  0  0
 12 54  1  0  0  0  0
 13 14  2  0  0  0  0
 13 15  1  0  0  0  0
 15 16  1  0  0  0  0
 15 55  1  0  0  0  0
 15 56  1  0  0  0  0
 16 17  1  0  0  0  0
 16 57  1  0  0  0  0
 16 58  1  0  0  0  0
 17 18  1  0  0  0  0
 17 19  1  0  0  0  0
 17 59  1  6  0  0  0
 18 60  1  0  0  0  0
 18 61  1  0  0  0  0
 18 62  1  0  0  0  0
 19 20  1  0  0  0  0
 19 22  1  0  0  0  0
 19 63  1  6  0  0  0
 20 21  1  0  0  0  0
 21 64  1  0  0  0  0
 21 65  1  0  0  0  0
 21 66  1  0  0  0  0
 22 23  1  0  0  0  0
 22 24  1  0  0  0  0
 22 67  1  1  0  0  0
 23 68  1  0  0  0  0
 23 69  1  0  0  0  0
 23 70  1  0  0  0  0
 24 25  1  0  0  0  0
 24 30  1  0  0  0  0
 24 71  1  1  0  0  0
 25 26  1  0  0  0  0
 25 27  1  0  0  0  0
 25 72  1  6  0  0  0
 26 73  1  0  0  0  0
 26 74  1  0  0  0  0
 26 75  1  0  0  0  0
 27 28  1  0  0  0  0
 27 76  1  0  0  0  0
 27 77  1  0  0  0  0
 28 29  1  0  0  0  0
 29 30  1  0  0  0  0
 29 31  1  0  0  0  0
 29 78  1  1  0  0  0
 31 32  2  0  0  0  0
 31 36  1  0  0  0  0
 32 33  1  0  0  0  0
 32 79  1  0  0  0  0
 33 34  2  0  0  0  0
 33 80  1  0  0  0  0
 34 35  1  0  0  0  0
 34 37  1  0  0  0  0
 35 36  2  0  0  0  0
 35 81  1  0  0  0  0
 36 82  1  0  0  0  0
 37 38  1  0  0  0  0
 38 83  1  0  0  0  0
 38 84  1  0  0  0  0
 38 85  1  0  0  0  0
M  END
