4k4f_ligand
 OpenBabel08222323353D

 56 60  0  0  1  0  0  0  0  0999 V2000
   -7.5140   46.0660   28.4820 C   0  0  0  0  0  0  0  0  0  0  0  0
   -7.5470   46.6210   29.7850 C   0  0  0  0  0  0  0  0  0  0  0  0
   -6.5030   46.3180   30.6910 C   0  0  0  0  0  0  0  0  0  0  0  0
   -5.4280   45.4740   30.3420 C   0  0  0  0  0  0  0  0  0  0  0  0
   -5.3990   44.9160   29.0130 C   0  0  0  0  0  0  0  0  0  0  0  0
   -6.4770   45.2380   28.0660 C   0  0  0  0  0  0  0  0  0  0  0  0
   -6.2760   44.7260   26.8210 C   0  0  1  0  0  0  0  0  0  0  0  0
   -5.3700   45.4230   25.7590 C   0  0  0  0  0  0  0  0  0  0  0  0
   -4.7810   46.7780   26.2500 C   0  0  0  0  0  0  0  0  0  0  0  0
   -5.8300   45.4710   24.3530 C   0  0  0  0  0  0  0  0  0  0  0  0
   -4.2470   44.4790   25.9170 O   0  0  0  0  0  0  0  0  0  0  0  0
   -4.7070   43.1480   26.2380 C   0  0  0  0  0  0  0  0  0  0  0  0
   -3.9800   42.1640   26.2070 O   0  0  0  0  0  0  0  0  0  0  0  0
   -6.0450   43.2570   26.5880 N   0  0  0  0  0  0  0  0  0  0  0  0
   -6.9170   42.2530   26.8480 C   0  0  0  0  0  0  0  0  0  0  0  0
   -8.2030   42.4940   27.4420 C   0  0  0  0  0  0  0  0  0  0  0  0
   -9.1300   41.4420   27.6410 C   0  0  0  0  0  0  0  0  0  0  0  0
   -6.6060   40.9230   26.4840 C   0  0  0  0  0  0  0  0  0  0  0  0
   -7.5400   39.8630   26.6860 C   0  0  0  0  0  0  0  0  0  0  0  0
   -8.7950   40.1210   27.2530 C   0  0  0  0  0  0  0  0  0  0  0  0
   -9.7190   38.9460   27.3750 C   0  0  0  0  0  0  0  0  0  0  0  0
   -9.4490   37.8360   26.8680 O   0  0  0  0  0  0  0  0  0  0  0  0
  -10.8920   39.1760   28.0790 N   0  0  0  0  0  0  0  0  0  0  0  0
  -11.9410   38.3300   28.4060 C   0  0  0  0  0  0  0  0  0  0  0  0
  -11.9930   36.9590   28.0140 C   0  0  0  0  0  0  0  0  0  0  0  0
  -13.1370   36.1600   28.3120 C   0  0  0  0  0  0  0  0  0  0  0  0
  -14.2350   36.7270   29.0030 C   0  0  0  0  0  0  0  0  0  0  0  0
  -13.0330   38.8710   29.0970 C   0  0  0  0  0  0  0  0  0  0  0  0
  -14.2160   38.0500   29.4010 C   0  0  0  0  0  0  0  0  0  0  0  0
  -15.2820   38.6130   30.0790 C   0  0  0  0  0  0  0  0  0  0  0  0
  -15.2180   39.9680   30.4770 C   0  0  0  0  0  0  0  0  0  0  0  0
  -14.0580   40.7520   30.1750 C   0  0  0  0  0  0  0  0  0  0  0  0
  -13.0130   40.1800   29.5020 N   0  0  0  0  0  0  0  0  0  0  0  0
   -8.3180   46.2926   27.7912 H   0  0  0  0  0  0  0  0  0  0  0  0
   -8.3621   47.2699   30.0844 H   0  0  0  0  0  0  0  0  0  0  0  0
   -6.5303   46.7485   31.6855 H   0  0  0  0  0  0  0  0  0  0  0  0
   -4.6431   45.2505   31.0555 H   0  0  0  0  0  0  0  0  0  0  0  0
   -4.5873   44.2629   28.7135 H   0  0  0  0  0  0  0  0  0  0  0  0
   -7.2839   44.8773   26.4073 H   0  0  0  0  0  0  0  0  0  0  0  0
   -4.1552   47.2144   25.4576 H   0  0  0  0  0  0  0  0  0  0  0  0
   -4.1693   46.6080   27.1483 H   0  0  0  0  0  0  0  0  0  0  0  0
   -5.6022   47.4690   26.4910 H   0  0  0  0  0  0  0  0  0  0  0  0
   -6.2337   44.4890   24.0656 H   0  0  0  0  0  0  0  0  0  0  0  0
   -4.9831   45.7250   23.6986 H   0  0  0  0  0  0  0  0  0  0  0  0
   -6.6150   46.2346   24.2499 H   0  0  0  0  0  0  0  0  0  0  0  0
   -8.4688   43.5007   27.7437 H   0  0  0  0  0  0  0  0  0  0  0  0
  -10.0951   41.6472   28.0898 H   0  0  0  0  0  0  0  0  0  0  0  0
   -5.6401   40.7041   26.0432 H   0  0  0  0  0  0  0  0  0  0  0  0
   -7.2767   38.8514   26.3988 H   0  0  0  0  0  0  0  0  0  0  0  0
  -10.9998   40.1143   28.4076 H   0  0  0  0  0  0  0  0  0  0  0  0
  -11.1551   36.5201   27.4845 H   0  0  0  0  0  0  0  0  0  0  0  0
  -13.1654   35.1194   28.0095 H   0  0  0  0  0  0  0  0  0  0  0  0
  -15.1023   36.1149   29.2228 H   0  0  0  0  0  0  0  0  0  0  0  0
  -16.1606   38.0192   30.3037 H   0  0  0  0  0  0  0  0  0  0  0  0
  -16.0485   40.4145   31.0118 H   0  0  0  0  0  0  0  0  0  0  0  0
  -14.0083   41.7917   30.4776 H   0  0  0  0  0  0  0  0  0  0  0  0
  1  2  2  0  0  0  0
  1  6  1  0  0  0  0
  1 34  1  0  0  0  0
  2  3  1  0  0  0  0
  2 35  1  0  0  0  0
  3  4  2  0  0  0  0
  3 36  1  0  0  0  0
  4  5  1  0  0  0  0
  4 37  1  0  0  0  0
  5  6  2  0  0  0  0
  5 38  1  0  0  0  0
  6  7  1  0  0  0  0
  7  8  1  0  0  0  0
  7 14  1  0  0  0  0
  7 39  1  6  0  0  0
  8  9  1  0  0  0  0
  8 10  1  0  0  0  0
  8 11  1  0  0  0  0
  9 40  1  0  0  0  0
  9 41  1  0  0  0  0
  9 42  1  0  0  0  0
 10 43  1  0  0  0  0
 10 44  1  0  0  0  0
 10 45  1  0  0  0  0
 11 12  1  0  0  0  0
 12 13  2  0  0  0  0
 12 14  1  0  0  0  0
 14 15  1  0  0  0  0
 15 16  2  0  0  0  0
 15 18  1  0  0  0  0
 16 17  1  0  0  0  0
 16 46  1  0  0  0  0
 17 20  2  0  0  0  0
 17 47  1  0  0  0  0
 18 19  2  0  0  0  0
 18 48  1  0  0  0  0
 19 20  1  0  0  0  0
 19 49  1  0  0  0  0
 20 21  1  0  0  0  0
 21 22  2  0  0  0  0
 21 23  1  0  0  0  0
 23 24  1  0  0  0  0
 23 50  1  0  0  0  0
 24 25  2  0  0  0  0
 24 28  1  0  0  0  0
 25 26  1  0  0  0  0
 25 51  1  0  0  0  0
 26 27  2  0  0  0  0
 26 52  1  0  0  0  0
 27 29  1  0  0  0  0
 27 53  1  0  0  0  0
 28 29  2  0  0  0  0
 28 33  1  0  0  0  0
 29 30  1  0  0  0  0
 30 31  2  0  0  0  0
 30 54  1  0  0  0  0
 31 32  1  0  0  0  0
 31 55  1  0  0  0  0
 32 33  2  0  0  0  0
 32 56  1  0  0  0  0
M  END
