4k5l_ligand
 OpenBabel08222323353D

 31 30  0  0  1  0  0  0  0  0999 V2000
   11.4870   10.1340   19.9280 N   0  0  0  0  0  0  0  0  0  0  0  0
   12.4270    9.9260   19.0780 C   0  0  0  0  0  3  0  0  0  0  0  0
   13.0370    8.7340   19.0130 N   0  0  0  0  0  0  0  0  0  0  0  0
   12.8310   10.9260   18.2940 N   0  0  0  0  0  0  0  0  0  0  0  0
   12.7920   10.9930   16.8400 C   0  0  0  0  0  0  0  0  0  0  0  0
   12.0410   12.2180   16.3520 C   0  0  0  0  0  0  0  0  0  0  0  0
   12.5680   12.7800   15.0300 C   0  0  0  0  0  0  0  0  0  0  0  0
   12.6090   11.7710   13.8540 C   0  0  0  0  0  0  0  0  0  0  0  0
   12.5310   12.6560   12.6140 C   0  0  2  0  0  0  0  0  0  0  0  0
   11.1310   12.8580   12.1760 N   0  3  0  0  0  0  0  0  0  0  0  0
   13.3680   11.8250   11.2320 P   0  0  0  0  0  0  0  0  0  0  0  0
   12.4260   10.6750   10.9060 O   0  0  0  0  0  1  0  0  0  0  0  0
   13.2510   12.7380    9.9780 O   0  0  0  0  0  1  0  0  0  0  0  0
   14.8480   11.5420   11.5480 O   0  0  0  0  0  0  0  0  0  0  0  0
   11.1666    9.3692   20.5389 H   0  0  0  0  0  0  0  0  0  0  0  0
   11.0535   11.0657   19.9988 H   0  0  0  0  0  0  0  0  0  0  0  0
   13.7898    8.5774   18.3277 H   0  0  0  0  0  0  0  0  0  0  0  0
   12.7529    7.9747   19.6484 H   0  0  0  0  0  0  0  0  0  0  0  0
   13.2174   11.7508   18.7751 H   0  0  0  0  0  0  0  0  0  0  0  0
   12.2916   10.0921   16.4554 H   0  0  0  0  0  0  0  0  0  0  0  0
   13.8227   11.0316   16.4576 H   0  0  0  0  0  0  0  0  0  0  0  0
   12.1216   13.0025   17.1189 H   0  0  0  0  0  0  0  0  0  0  0  0
   10.9840   11.9454   16.2160 H   0  0  0  0  0  0  0  0  0  0  0  0
   13.5911   13.1466   15.1997 H   0  0  0  0  0  0  0  0  0  0  0  0
   11.9217   13.6199   14.7354 H   0  0  0  0  0  0  0  0  0  0  0  0
   11.7526   11.0821   13.8984 H   0  0  0  0  0  0  0  0  0  0  0  0
   13.5452   11.1936   13.8653 H   0  0  0  0  0  0  0  0  0  0  0  0
   13.0045   13.6259   12.8261 H   0  0  0  0  0  0  0  0  0  0  0  0
   10.6132   13.3189   12.9078 H   0  0  0  0  0  0  0  0  0  0  0  0
   10.7089   11.9645   11.9773 H   0  0  0  0  0  0  0  0  0  0  0  0
   11.1179   13.4282   11.3449 H   0  0  0  0  0  0  0  0  0  0  0  0
  1  2  1  0  0  0  0
  1 15  1  0  0  0  0
  1 16  1  0  0  0  0
  2  3  1  0  0  0  0
  2  4  1  0  0  0  0
  3 17  1  0  0  0  0
  3 18  1  0  0  0  0
  4  5  1  0  0  0  0
  4 19  1  0  0  0  0
  5  6  1  0  0  0  0
  5 20  1  0  0  0  0
  5 21  1  0  0  0  0
  6  7  1  0  0  0  0
  6 22  1  0  0  0  0
  6 23  1  0  0  0  0
  7  8  1  0  0  0  0
  7 24  1  0  0  0  0
  7 25  1  0  0  0  0
  8  9  1  0  0  0  0
  8 26  1  0  0  0  0
  8 27  1  0  0  0  0
  9 10  1  0  0  0  0
  9 11  1  0  0  0  0
  9 28  1  1  0  0  0
 10 29  1  0  0  0  0
 10 30  1  0  0  0  0
 10 31  1  0  0  0  0
 11 12  1  0  0  0  0
 11 13  1  0  0  0  0
 11 14  2  0  0  0  0
M  CHG  1  10   1
M  END
