4k5m_ligand
 OpenBabel08222323353D

 28 27  0  0  1  0  0  0  0  0999 V2000
   13.7330    9.4610   17.6570 N   0  0  0  0  0  0  0  0  0  0  0  0
   12.9130   10.4020   17.9970 C   0  0  0  0  0  3  0  0  0  0  0  0
   11.9430   10.2700   18.9570 N   0  0  0  0  0  0  0  0  0  0  0  0
   13.0150   11.5640   17.3060 N   0  0  0  0  0  0  0  0  0  0  0  0
   12.0990   11.9070   16.2390 C   0  0  0  0  0  0  0  0  0  0  0  0
   12.7270   12.7170   15.1090 C   0  0  0  0  0  0  0  0  0  0  0  0
   12.7310   11.7710   13.8540 C   0  0  0  0  0  0  0  0  0  0  0  0
   12.5630   12.6330   12.5740 C   0  0  2  0  0  0  0  0  0  0  0  0
   11.1290   12.8320   12.1320 N   0  3  0  0  0  0  0  0  0  0  0  0
   13.4040   11.7750   11.2130 P   0  0  0  0  0  0  0  0  0  0  0  0
   13.1330   12.6790    9.9740 O   0  0  0  0  0  1  0  0  0  0  0  0
   14.9540   11.5600   11.4480 O   0  0  0  0  0  1  0  0  0  0  0  0
   12.5150   10.4830   10.8800 O   0  0  0  0  0  0  0  0  0  0  0  0
   13.7062    8.5537   18.1439 H   0  0  0  0  0  0  0  0  0  0  0  0
   14.4127    9.6190   16.8994 H   0  0  0  0  0  0  0  0  0  0  0  0
   11.3241   11.0636   19.1763 H   0  0  0  0  0  0  0  0  0  0  0  0
   11.8332    9.3773   19.4589 H   0  0  0  0  0  0  0  0  0  0  0  0
   13.7682   12.2236   17.5480 H   0  0  0  0  0  0  0  0  0  0  0  0
   11.2750   12.4958   16.6682 H   0  0  0  0  0  0  0  0  0  0  0  0
   11.7004   10.9741   15.8138 H   0  0  0  0  0  0  0  0  0  0  0  0
   13.7545   13.0085   15.3720 H   0  0  0  0  0  0  0  0  0  0  0  0
   12.1304   13.6187   14.9068 H   0  0  0  0  0  0  0  0  0  0  0  0
   11.8993   11.0549   13.9287 H   0  0  0  0  0  0  0  0  0  0  0  0
   13.6837   11.2230   13.8077 H   0  0  0  0  0  0  0  0  0  0  0  0
   13.0231   13.6168   12.7485 H   0  0  0  0  0  0  0  0  0  0  0  0
   10.6165   13.3076   12.8581 H   0  0  0  0  0  0  0  0  0  0  0  0
   10.7048   11.9352   11.9537 H   0  0  0  0  0  0  0  0  0  0  0  0
   11.1107   13.3858   11.2900 H   0  0  0  0  0  0  0  0  0  0  0  0
  1  2  1  0  0  0  0
  1 14  1  0  0  0  0
  1 15  1  0  0  0  0
  2  3  1  0  0  0  0
  2  4  1  0  0  0  0
  3 16  1  0  0  0  0
  3 17  1  0  0  0  0
  4  5  1  0  0  0  0
  4 18  1  0  0  0  0
  5  6  1  0  0  0  0
  5 19  1  0  0  0  0
  5 20  1  0  0  0  0
  6  7  1  0  0  0  0
  6 21  1  0  0  0  0
  6 22  1  0  0  0  0
  7  8  1  0  0  0  0
  7 23  1  0  0  0  0
  7 24  1  0  0  0  0
  8  9  1  0  0  0  0
  8 10  1  0  0  0  0
  8 25  1  1  0  0  0
  9 26  1  0  0  0  0
  9 27  1  0  0  0  0
  9 28  1  0  0  0  0
 10 11  1  0  0  0  0
 10 12  1  0  0  0  0
 10 13  2  0  0  0  0
M  CHG  1   9   1
M  END
