4k5o_ligand
 OpenBabel08222323353D

 28 29  0  0  1  0  0  0  0  0999 V2000
   12.2640   10.5840   10.9180 O   0  0  0  0  0  1  0  0  0  0  0  0
   13.1540   11.7860   11.4150 P   0  0  0  0  0  0  0  0  0  0  0  0
   14.6180   11.6250   12.0770 O   0  0  0  0  0  1  0  0  0  0  0  0
   13.2590   12.6460   10.0520 O   0  0  0  0  0  0  0  0  0  0  0  0
   12.2200   12.8660   12.4690 C   0  0  1  0  0  0  0  0  0  0  0  0
   10.7940   12.5890   12.1240 N   0  3  0  0  0  0  0  0  0  0  0  0
   12.4180   12.6540   13.9250 C   0  0  0  0  0  0  0  0  0  0  0  0
   11.6870   11.6240   14.4540 C   0  0  0  0  0  0  0  0  0  0  0  0
   11.6580   11.3610   15.8050 C   0  0  0  0  0  0  0  0  0  0  0  0
   12.3790   12.0620   16.7380 C   0  0  0  0  0  0  0  0  0  0  0  0
   13.1050   13.1360   16.1670 C   0  0  0  0  0  0  0  0  0  0  0  0
   13.1340   13.4630   14.8070 C   0  0  0  0  0  0  0  0  0  0  0  0
   12.2390   11.6750   18.0520 N   0  0  0  0  0  0  0  0  0  0  0  0
   12.7130   12.3920   19.1620 N   0  0  0  0  0  0  0  0  0  0  0  0
   12.2350   11.6870   20.2240 C   0  0  0  0  0  0  0  0  0  0  0  0
   11.4670   10.5970   19.7820 C   0  0  0  0  0  0  0  0  0  0  0  0
   11.4550   10.6400   18.4010 C   0  0  0  0  0  0  0  0  0  0  0  0
   12.4758   13.9097   12.2341 H   0  0  0  0  0  0  0  0  0  0  0  0
   10.1931   13.1704   12.6870 H   0  0  0  0  0  0  0  0  0  0  0  0
   10.5872   11.6189   12.3035 H   0  0  0  0  0  0  0  0  0  0  0  0
   10.6390   12.7907   11.1487 H   0  0  0  0  0  0  0  0  0  0  0  0
   11.1112   10.9939   13.7858 H   0  0  0  0  0  0  0  0  0  0  0  0
   11.0272   10.5509   16.1526 H   0  0  0  0  0  0  0  0  0  0  0  0
   13.6864   13.7561   16.8397 H   0  0  0  0  0  0  0  0  0  0  0  0
   13.6956   14.3187   14.4499 H   0  0  0  0  0  0  0  0  0  0  0  0
   12.4216   11.9332   21.2683 H   0  0  0  0  0  0  0  0  0  0  0  0
   10.9735    9.8568   20.4101 H   0  0  0  0  0  0  0  0  0  0  0  0
   10.9186    9.9704   17.7303 H   0  0  0  0  0  0  0  0  0  0  0  0
  1  2  1  0  0  0  0
  2  3  1  0  0  0  0
  2  4  2  0  0  0  0
  2  5  1  0  0  0  0
  5  6  1  0  0  0  0
  5  7  1  0  0  0  0
  5 18  1  6  0  0  0
  6 19  1  0  0  0  0
  6 20  1  0  0  0  0
  6 21  1  0  0  0  0
  7  8  2  0  0  0  0
  7 12  1  0  0  0  0
  8  9  1  0  0  0  0
  8 22  1  0  0  0  0
  9 10  2  0  0  0  0
  9 23  1  0  0  0  0
 10 11  1  0  0  0  0
 10 13  1  0  0  0  0
 11 12  2  0  0  0  0
 11 24  1  0  0  0  0
 12 25  1  0  0  0  0
 13 14  1  0  0  0  0
 13 17  1  0  0  0  0
 14 15  2  0  0  0  0
 15 16  1  0  0  0  0
 15 26  1  0  0  0  0
 16 17  2  0  0  0  0
 16 27  1  0  0  0  0
 17 28  1  0  0  0  0
M  CHG  1   6   1
M  END
