4k63_ligand
 OpenBabel08222323353D

 87 89  0  0  1  0  0  0  0  0999 V2000
  -88.2860   62.4680   33.5160 C   0  0  0  0  0  0  0  0  0  0  0  0
  -87.2370   62.5560   34.6250 C   0  0  1  0  0  0  0  0  0  0  0  0
  -88.3050   62.5470   35.5780 C   0  0  0  0  0  0  0  0  0  0  0  0
  -89.0990   61.3740   35.7580 C   0  0  1  0  0  0  0  0  0  0  0  0
  -88.3450   60.2000   36.1920 C   0  0  2  0  0  0  0  0  0  0  0  0
  -87.2000   60.0520   35.2090 C   0  0  2  0  0  0  0  0  0  0  0  0
  -86.2530   59.1040   35.5020 C   0  0  1  0  0  0  0  0  0  0  0  0
  -85.0500   59.3790   34.6090 C   0  0  1  0  0  0  0  0  0  0  0  0
  -83.7700   58.9660   35.2960 C   0  0  0  0  0  0  0  0  0  0  0  0
  -88.9740   58.0400   37.3280 C   0  0  0  0  0  0  0  0  0  0  0  0
  -89.8190   56.8040   37.4590 C   0  0  0  0  0  0  0  0  0  0  0  0
  -89.2110   59.0050   36.2670 N   0  0  0  0  0  0  0  0  0  0  0  0
  -89.1230   63.4070   33.3670 O   0  5  0  0  0  0  0  0  0  0  0  0
  -88.2850   61.5050   32.7270 O   0  0  0  0  0  0  0  0  0  0  0  0
  -90.1740   61.6600   36.7130 O   0  0  0  0  0  0  0  0  0  0  0  0
  -86.5780   61.4350   35.2900 O   0  0  0  0  0  0  0  0  0  0  0  0
  -85.8690   59.2170   36.8580 O   0  0  0  0  0  0  0  0  0  0  0  0
  -85.2180   58.7140   33.4190 O   0  0  0  0  0  0  0  0  0  0  0  0
  -82.6280   58.6920   34.5410 O   0  0  0  0  0  0  0  0  0  0  0  0
  -88.0680   58.2350   38.1250 O   0  0  0  0  0  0  0  0  0  0  0  0
  -85.8540   66.0020   37.9200 C   0  0  1  0  0  0  0  0  0  0  0  0
  -86.7510   65.3350   36.8820 C   0  0  1  0  0  0  0  0  0  0  0  0
  -86.2750   63.9650   36.3950 C   0  0  2  0  0  0  0  0  0  0  0  0
  -84.7490   63.8010   36.4040 C   0  0  2  0  0  0  0  0  0  0  0  0
  -84.1000   64.5650   37.5630 C   0  0  1  0  0  0  0  0  0  0  0  0
  -82.5760   64.4670   37.5350 C   0  0  0  0  0  0  0  0  0  0  0  0
  -88.0400   65.1710   37.4300 O   0  0  0  0  0  0  0  0  0  0  0  0
  -86.7820   63.8540   35.0760 O   0  0  0  0  0  0  0  0  0  0  0  0
  -84.1890   64.2100   35.1700 O   0  0  0  0  0  0  0  0  0  0  0  0
  -84.5080   65.9160   37.5220 O   0  0  0  0  0  0  0  0  0  0  0  0
  -82.0030   65.3780   38.4500 O   0  0  0  0  0  0  0  0  0  0  0  0
  -87.0400   69.9520   41.1440 C   0  0  2  0  0  0  0  0  0  0  0  0
  -85.5950   69.9410   40.6650 C   0  0  1  0  0  0  0  0  0  0  0  0
  -85.4410   69.1150   39.3910 C   0  0  2  0  0  0  0  0  0  0  0  0
  -86.2050   67.7910   39.4240 C   0  0  1  0  0  0  0  0  0  0  0  0
  -87.5850   67.9230   40.0720 C   0  0  1  0  0  0  0  0  0  0  0  0
  -88.2240   66.5670   40.3630 C   0  0  0  0  0  0  0  0  0  0  0  0
  -84.6360   72.0450   41.3890 C   0  0  0  0  0  0  0  0  0  0  0  0
  -84.6720   73.5330   41.2030 C   0  0  0  0  0  0  0  0  0  0  0  0
  -85.1700   71.3070   40.4210 N   0  0  0  0  0  0  0  0  0  0  0  0
  -87.1270   70.6140   42.3860 O   0  0  0  0  0  0  0  0  0  0  0  0
  -84.0720   68.8600   39.1640 O   0  0  0  0  0  0  0  0  0  0  0  0
  -86.3330   67.3520   38.0880 O   0  0  0  0  0  0  0  0  0  0  0  0
  -87.4990   68.6280   41.2910 O   0  0  0  0  0  0  0  0  0  0  0  0
  -87.2960   65.7290   41.0200 O   0  0  0  0  0  0  0  0  0  0  0  0
  -84.1360   71.5540   42.3990 O   0  0  0  0  0  0  0  0  0  0  0  0
  -88.9941   63.3540   35.2884 H   0  0  0  0  0  0  0  0  0  0  0  0
  -87.8583   62.7796   36.5559 H   0  0  0  0  0  0  0  0  0  0  0  0
  -89.5545   61.1307   34.7867 H   0  0  0  0  0  0  0  0  0  0  0  0
  -87.9325   60.3820   37.1953 H   0  0  0  0  0  0  0  0  0  0  0  0
  -87.5938   59.8461   34.2028 H   0  0  0  0  0  0  0  0  0  0  0  0
  -86.6497   58.0963   35.3093 H   0  0  0  0  0  0  0  0  0  0  0  0
  -84.9995   60.4587   34.4046 H   0  0  0  0  0  0  0  0  0  0  0  0
  -83.9973   58.0552   35.8694 H   0  0  0  0  0  0  0  0  0  0  0  0
  -83.5051   59.7786   35.9884 H   0  0  0  0  0  0  0  0  0  0  0  0
  -89.4745   56.2140   38.3211 H   0  0  0  0  0  0  0  0  0  0  0  0
  -89.7310   56.2009   36.5433 H   0  0  0  0  0  0  0  0  0  0  0  0
  -90.8699   57.0924   37.6086 H   0  0  0  0  0  0  0  0  0  0  0  0
  -89.9444   58.8632   35.6021 H   0  0  0  0  0  0  0  0  0  0  0  0
  -90.6585   62.4240   36.4232 H   0  0  0  0  0  0  0  0  0  0  0  0
  -86.6199   59.0453   37.4140 H   0  0  0  0  0  0  0  0  0  0  0  0
  -84.4891   58.9102   32.8423 H   0  0  0  0  0  0  0  0  0  0  0  0
  -81.9166   58.4487   35.1218 H   0  0  0  0  0  0  0  0  0  0  0  0
  -85.9561   65.4747   38.8800 H   0  0  0  0  0  0  0  0  0  0  0  0
  -86.8099   66.0035   36.0105 H   0  0  0  0  0  0  0  0  0  0  0  0
  -86.7090   63.1804   37.0322 H   0  0  0  0  0  0  0  0  0  0  0  0
  -84.5282   62.7320   36.5399 H   0  0  0  0  0  0  0  0  0  0  0  0
  -84.4519   64.1220   38.5063 H   0  0  0  0  0  0  0  0  0  0  0  0
  -82.2172   64.6988   36.5213 H   0  0  0  0  0  0  0  0  0  0  0  0
  -82.2743   63.4445   37.8059 H   0  0  0  0  0  0  0  0  0  0  0  0
  -88.3598   66.0098   37.7409 H   0  0  0  0  0  0  0  0  0  0  0  0
  -84.6004   63.7286   34.4618 H   0  0  0  0  0  0  0  0  0  0  0  0
  -82.2596   66.2625   38.2172 H   0  0  0  0  0  0  0  0  0  0  0  0
  -87.6645   70.4764   40.4057 H   0  0  0  0  0  0  0  0  0  0  0  0
  -84.9627   69.5005   41.4499 H   0  0  0  0  0  0  0  0  0  0  0  0
  -85.8331   69.7101   38.5531 H   0  0  0  0  0  0  0  0  0  0  0  0
  -85.6217   67.0555   39.9973 H   0  0  0  0  0  0  0  0  0  0  0  0
  -88.2358   68.4788   39.3810 H   0  0  0  0  0  0  0  0  0  0  0  0
  -88.5321   66.0984   39.4167 H   0  0  0  0  0  0  0  0  0  0  0  0
  -89.1053   66.7095   41.0057 H   0  0  0  0  0  0  0  0  0  0  0  0
  -84.2015   74.0222   42.0686 H   0  0  0  0  0  0  0  0  0  0  0  0
  -85.7166   73.8666   41.1164 H   0  0  0  0  0  0  0  0  0  0  0  0
  -84.1243   73.8015   40.2876 H   0  0  0  0  0  0  0  0  0  0  0  0
  -85.2809   71.7001   39.5082 H   0  0  0  0  0  0  0  0  0  0  0  0
  -88.0311   70.6201   42.6777 H   0  0  0  0  0  0  0  0  0  0  0  0
  -83.5970   69.6825   39.1434 H   0  0  0  0  0  0  0  0  0  0  0  0
  -87.0303   66.1326   41.8379 H   0  0  0  0  0  0  0  0  0  0  0  0
  1 13  1  0  0  0  0
  1 14  2  0  0  0  0
  2  1  1  6  0  0  0
  2  3  1  0  0  0  0
  2 16  1  0  0  0  0
  3  4  1  0  0  0  0
  3 47  1  0  0  0  0
  3 48  1  0  0  0  0
  4  5  1  0  0  0  0
  4 15  1  0  0  0  0
  4 49  1  6  0  0  0
  5 12  1  0  0  0  0
  5 50  1  1  0  0  0
  6  5  1  0  0  0  0
  6  7  1  0  0  0  0
  6 51  1  6  0  0  0
  7  8  1  0  0  0  0
  7 17  1  0  0  0  0
  7 52  1  6  0  0  0
  8  9  1  0  0  0  0
  8 18  1  0  0  0  0
  8 53  1  6  0  0  0
  9 19  1  0  0  0  0
  9 54  1  0  0  0  0
  9 55  1  0  0  0  0
 10 11  1  0  0  0  0
 10 20  2  0  0  0  0
 11 56  1  0  0  0  0
 11 57  1  0  0  0  0
 11 58  1  0  0  0  0
 12 10  1  0  0  0  0
 12 59  1  0  0  0  0
 15 60  1  0  0  0  0
 16  6  1  0  0  0  0
 17 61  1  0  0  0  0
 18 62  1  0  0  0  0
 19 63  1  0  0  0  0
 21 22  1  0  0  0  0
 21 30  1  0  0  0  0
 21 64  1  1  0  0  0
 22 23  1  0  0  0  0
 22 27  1  0  0  0  0
 22 65  1  6  0  0  0
 23 24  1  0  0  0  0
 23 28  1  0  0  0  0
 23 66  1  1  0  0  0
 24 29  1  0  0  0  0
 24 67  1  1  0  0  0
 25 24  1  0  0  0  0
 25 26  1  0  0  0  0
 25 68  1  1  0  0  0
 26 31  1  0  0  0  0
 26 69  1  0  0  0  0
 26 70  1  0  0  0  0
 27 71  1  0  0  0  0
 28  2  1  0  0  0  0
 29 72  1  0  0  0  0
 30 25  1  0  0  0  0
 31 73  1  0  0  0  0
 32 41  1  0  0  0  0
 32 44  1  0  0  0  0
 32 74  1  6  0  0  0
 33 32  1  0  0  0  0
 33 34  1  0  0  0  0
 33 75  1  1  0  0  0
 34 35  1  0  0  0  0
 34 42  1  0  0  0  0
 34 76  1  6  0  0  0
 35 36  1  0  0  0  0
 35 43  1  0  0  0  0
 35 77  1  1  0  0  0
 36 37  1  0  0  0  0
 36 78  1  6  0  0  0
 37 45  1  0  0  0  0
 37 79  1  0  0  0  0
 37 80  1  0  0  0  0
 38 39  1  0  0  0  0
 38 40  1  0  0  0  0
 38 46  2  0  0  0  0
 39 81  1  0  0  0  0
 39 82  1  0  0  0  0
 39 83  1  0  0  0  0
 40 33  1  0  0  0  0
 40 84  1  0  0  0  0
 41 85  1  0  0  0  0
 42 86  1  0  0  0  0
 43 21  1  0  0  0  0
 44 36  1  0  0  0  0
 45 87  1  0  0  0  0
M  CHG  1  13  -1
M  END
