4k67_ligand
 OpenBabel08222323353D

 60 61  0  0  1  0  0  0  0  0999 V2000
   18.0110  -21.8510   34.6000 C   0  0  0  0  0  0  0  0  0  0  0  0
   17.4760  -21.9840   35.9750 C   0  0  1  0  0  0  0  0  0  0  0  0
   18.8830  -21.9740   36.6230 C   0  0  0  0  0  0  0  0  0  0  0  0
   19.6360  -20.6700   36.7300 C   0  0  1  0  0  0  0  0  0  0  0  0
   18.8840  -19.5620   37.2150 C   0  0  2  0  0  0  0  0  0  0  0  0
   17.5790  -19.5700   36.4760 C   0  0  2  0  0  0  0  0  0  0  0  0
   16.6770  -18.5810   36.9660 C   0  0  1  0  0  0  0  0  0  0  0  0
   15.3170  -18.8850   36.3430 C   0  0  1  0  0  0  0  0  0  0  0  0
   14.2800  -17.8360   36.6170 C   0  0  0  0  0  0  0  0  0  0  0  0
   19.4700  -17.1420   37.9150 C   0  0  0  0  0  0  0  0  0  0  0  0
   20.1550  -15.8650   37.6090 C   0  0  0  0  0  0  0  0  0  0  0  0
   19.5580  -18.2700   36.9420 N   0  0  0  0  0  0  0  0  0  0  0  0
   17.4540  -21.0680   33.8170 O   0  5  0  0  0  0  0  0  0  0  0  0
   19.0220  -22.5850   34.2180 O   0  0  0  0  0  0  0  0  0  0  0  0
   20.8080  -20.8430   37.5590 O   0  0  0  0  0  0  0  0  0  0  0  0
   16.9720  -20.9160   36.6920 O   0  0  0  0  0  0  0  0  0  0  0  0
   16.5420  -18.7010   38.3300 O   0  0  0  0  0  0  0  0  0  0  0  0
   15.4280  -18.9330   34.9700 O   0  0  0  0  0  0  0  0  0  0  0  0
   13.9710  -17.0930   35.5290 O   0  0  0  0  0  0  0  0  0  0  0  0
   18.8430  -17.2640   38.9550 O   0  0  0  0  0  0  0  0  0  0  0  0
   13.9090  -26.1490   37.6270 C   0  0  2  0  0  0  0  0  0  0  0  0
   13.0670  -26.4600   36.3850 C   0  0  1  0  0  0  0  0  0  0  0  0
   14.0210  -26.7770   35.2310 C   0  0  2  0  0  0  0  0  0  0  0  0
   14.9070  -25.5570   35.0030 C   0  0  2  0  0  0  0  0  0  0  0  0
   15.5710  -25.0440   36.2800 C   0  0  1  0  0  0  0  0  0  0  0  0
   15.9460  -23.6000   36.0320 C   0  0  0  0  0  0  0  0  0  0  0  0
   13.0850  -25.8940   38.7500 O   0  0  0  0  0  0  0  0  0  0  0  0
   12.1370  -27.5060   36.6200 O   0  0  0  0  0  0  0  0  0  0  0  0
   13.3180  -27.0670   34.0330 O   0  0  0  0  0  0  0  0  0  0  0  0
   14.0980  -24.5300   34.4740 O   0  0  0  0  0  0  0  0  0  0  0  0
   14.6880  -24.9910   37.3860 O   0  0  0  0  0  0  0  0  0  0  0  0
   17.2430  -23.2990   36.4760 O   0  0  0  0  0  0  0  0  0  0  0  0
   19.5115  -22.6607   36.0370 H   0  0  0  0  0  0  0  0  0  0  0  0
   18.7687  -22.3637   37.6453 H   0  0  0  0  0  0  0  0  0  0  0  0
   19.9704  -20.4116   35.7144 H   0  0  0  0  0  0  0  0  0  0  0  0
   18.7175  -19.6691   38.2970 H   0  0  0  0  0  0  0  0  0  0  0  0
   17.7594  -19.3984   35.4046 H   0  0  0  0  0  0  0  0  0  0  0  0
   17.0222  -17.5714   36.6987 H   0  0  0  0  0  0  0  0  0  0  0  0
   14.9665  -19.8538   36.7285 H   0  0  0  0  0  0  0  0  0  0  0  0
   14.6604  -17.1652   37.4015 H   0  0  0  0  0  0  0  0  0  0  0  0
   13.3652  -18.3333   36.9716 H   0  0  0  0  0  0  0  0  0  0  0  0
   19.9850  -15.1520   38.4292 H   0  0  0  0  0  0  0  0  0  0  0  0
   19.7544  -15.4491   36.6728 H   0  0  0  0  0  0  0  0  0  0  0  0
   21.2344  -16.0453   37.4978 H   0  0  0  0  0  0  0  0  0  0  0  0
   20.0778  -18.1531   36.0957 H   0  0  0  0  0  0  0  0  0  0  0  0
   21.3139  -21.5812   37.2401 H   0  0  0  0  0  0  0  0  0  0  0  0
   17.3755  -18.5169   38.7470 H   0  0  0  0  0  0  0  0  0  0  0  0
   15.6972  -18.0818   34.6452 H   0  0  0  0  0  0  0  0  0  0  0  0
   13.6325  -17.6596   34.8457 H   0  0  0  0  0  0  0  0  0  0  0  0
   14.5672  -27.0038   37.8415 H   0  0  0  0  0  0  0  0  0  0  0  0
   12.4929  -25.5596   36.1211 H   0  0  0  0  0  0  0  0  0  0  0  0
   14.6423  -27.6435   35.5016 H   0  0  0  0  0  0  0  0  0  0  0  0
   15.6929  -25.8204   34.2799 H   0  0  0  0  0  0  0  0  0  0  0  0
   16.4510  -25.6592   36.5192 H   0  0  0  0  0  0  0  0  0  0  0  0
   15.2321  -22.9536   36.5634 H   0  0  0  0  0  0  0  0  0  0  0  0
   15.8875  -23.4006   34.9518 H   0  0  0  0  0  0  0  0  0  0  0  0
   12.5222  -25.1510   38.5662 H   0  0  0  0  0  0  0  0  0  0  0  0
   11.5679  -27.2660   37.3418 H   0  0  0  0  0  0  0  0  0  0  0  0
   12.7813  -26.3206   33.7935 H   0  0  0  0  0  0  0  0  0  0  0  0
   13.6788  -24.8366   33.6785 H   0  0  0  0  0  0  0  0  0  0  0  0
  1 13  1  0  0  0  0
  1 14  2  0  0  0  0
  2  1  1  6  0  0  0
  2  3  1  0  0  0  0
  2 16  1  0  0  0  0
  3  4  1  0  0  0  0
  3 33  1  0  0  0  0
  3 34  1  0  0  0  0
  4  5  1  0  0  0  0
  4 15  1  0  0  0  0
  4 35  1  6  0  0  0
  5 12  1  0  0  0  0
  5 36  1  1  0  0  0
  6  5  1  0  0  0  0
  6  7  1  0  0  0  0
  6 37  1  6  0  0  0
  7  8  1  0  0  0  0
  7 17  1  0  0  0  0
  7 38  1  6  0  0  0
  8  9  1  0  0  0  0
  8 18  1  0  0  0  0
  8 39  1  1  0  0  0
  9 19  1  0  0  0  0
  9 40  1  0  0  0  0
  9 41  1  0  0  0  0
 10 11  1  0  0  0  0
 10 20  2  0  0  0  0
 11 42  1  0  0  0  0
 11 43  1  0  0  0  0
 11 44  1  0  0  0  0
 12 10  1  0  0  0  0
 12 45  1  0  0  0  0
 15 46  1  0  0  0  0
 16  6  1  0  0  0  0
 17 47  1  0  0  0  0
 18 48  1  0  0  0  0
 19 49  1  0  0  0  0
 21 22  1  0  0  0  0
 21 27  1  0  0  0  0
 21 50  1  1  0  0  0
 22 28  1  0  0  0  0
 22 51  1  6  0  0  0
 23 22  1  0  0  0  0
 23 29  1  0  0  0  0
 23 52  1  1  0  0  0
 24 23  1  0  0  0  0
 24 30  1  0  0  0  0
 24 53  1  6  0  0  0
 25 24  1  0  0  0  0
 25 31  1  0  0  0  0
 25 54  1  1  0  0  0
 26 25  1  0  0  0  0
 26 32  1  0  0  0  0
 26 55  1  0  0  0  0
 26 56  1  0  0  0  0
 27 57  1  0  0  0  0
 28 58  1  0  0  0  0
 29 59  1  0  0  0  0
 30 60  1  0  0  0  0
 31 21  1  0  0  0  0
 32  2  1  0  0  0  0
M  CHG  1  13  -1
M  END
