4k6t_ligand
 OpenBabel08222323353D

161166  0  0  1  0  0  0  0  0999 V2000
    5.4370  -25.7540   -1.3550 C   0  0  0  0  0  0  0  0  0  0  0  0
    5.6360  -26.3280    0.0530 C   0  0  1  0  0  0  0  0  0  0  0  0
    6.9900  -25.9370    0.6940 C   0  0  0  0  0  0  0  0  0  0  0  0
    7.0090  -24.4920    1.1870 C   0  0  1  0  0  0  0  0  0  0  0  0
    5.7560  -24.1810    2.0260 C   0  0  2  0  0  0  0  0  0  0  0  0
    4.4890  -24.5800    1.2610 C   0  0  2  0  0  0  0  0  0  0  0  0
    3.1760  -24.2960    2.0310 C   0  0  1  0  0  0  0  0  0  0  0  0
    1.9900  -24.7530    1.1830 C   0  0  1  0  0  0  0  0  0  0  0  0
    0.6560  -24.2000    1.6890 C   0  0  0  0  0  0  0  0  0  0  0  0
    5.7750  -22.2700    3.5850 C   0  0  0  0  0  0  0  0  0  0  0  0
    5.6330  -20.7810    3.7290 C   0  0  0  0  0  0  0  0  0  0  0  0
    5.6390  -22.7670    2.3490 N   0  0  0  0  0  0  0  0  0  0  0  0
    6.4120  -25.7520   -2.1350 O   0  5  0  0  0  0  0  0  0  0  0  0
    4.3130  -25.3210   -1.7320 O   0  0  0  0  0  0  0  0  0  0  0  0
    8.2200  -24.2360    1.9310 O   0  0  0  0  0  0  0  0  0  0  0  0
    4.5480  -25.9680    0.9240 O   0  0  0  0  0  0  0  0  0  0  0  0
    3.1870  -24.9380    3.3180 O   0  0  0  0  0  0  0  0  0  0  0  0
    2.1960  -24.3490   -0.1840 O   0  0  0  0  0  0  0  0  0  0  0  0
    0.5660  -22.7820    1.4700 O   0  0  0  0  0  0  0  0  0  0  0  0
    6.0220  -22.9710    4.5450 O   0  0  0  0  0  0  0  0  0  0  0  0
    6.7050  -33.3180    9.3060 C   0  0  0  0  0  0  0  0  0  0  0  0
    7.9600  -32.9930    8.4880 C   0  0  1  0  0  0  0  0  0  0  0  0
    8.1820  -31.4780    8.3740 C   0  0  0  0  0  0  0  0  0  0  0  0
    8.5630  -30.8500    9.7170 C   0  0  1  0  0  0  0  0  0  0  0  0
    9.7630  -31.5830   10.3240 C   0  0  2  0  0  0  0  0  0  0  0  0
    9.4680  -33.0780   10.3750 C   0  0  2  0  0  0  0  0  0  0  0  0
   10.6060  -33.9150   10.9690 C   0  0  1  0  0  0  0  0  0  0  0  0
   10.1730  -35.3870   11.1040 C   0  0  1  0  0  0  0  0  0  0  0  0
   10.9250  -36.1560   12.1990 C   0  0  0  0  0  0  0  0  0  0  0  0
   11.1110  -30.3890   11.9790 C   0  0  0  0  0  0  0  0  0  0  0  0
   11.2420  -29.9670   13.4110 C   0  0  0  0  0  0  0  0  0  0  0  0
   10.0330  -31.1030   11.6770 N   0  0  0  0  0  0  0  0  0  0  0  0
    5.6570  -32.6500    9.1350 O   0  5  0  0  0  0  0  0  0  0  0  0
    6.7330  -34.2480   10.1460 O   0  0  0  0  0  0  0  0  0  0  0  0
    8.8620  -29.4580    9.5320 O   0  0  0  0  0  0  0  0  0  0  0  0
    9.1460  -33.5680    9.0650 O   0  0  0  0  0  0  0  0  0  0  0  0
   11.7620  -33.7420   10.1350 O   0  0  0  0  0  0  0  0  0  0  0  0
    8.7740  -35.4540   11.4160 O   0  0  0  0  0  0  0  0  0  0  0  0
   10.5370  -35.7420   13.5290 O   0  0  0  0  0  0  0  0  0  0  0  0
   11.9490  -30.0870   11.1520 O   0  0  0  0  0  0  0  0  0  0  0  0
    5.3520  -27.7240   -0.0450 O   0  0  0  0  0  0  0  0  0  0  0  0
    4.3850  -28.5850   -0.7010 C   0  0  0  0  0  0  0  0  0  0  0  0
    5.1360  -29.6580   -1.5230 C   0  0  0  0  0  0  0  0  0  0  0  0
    5.3770  -30.9980   -0.8090 N   0  0  0  0  0  0  0  0  0  0  0  0
    6.3590  -31.8530   -1.1640 C   0  0  0  0  0  0  0  0  0  0  0  0
    4.7430  -31.5030    0.1530 N   0  0  0  0  0  0  0  0  0  0  0  0
    5.2760  -32.7000    0.4750 N   0  0  0  0  0  0  0  0  0  0  0  0
    6.2870  -32.9060   -0.3550 C   0  0  0  0  0  0  0  0  0  0  0  0
    7.2010  -34.1440   -0.3920 C   0  0  0  0  0  0  0  0  0  0  0  0
    7.9190  -34.4710    0.8780 N   0  3  1  0  0  0  0  0  0  0  0  0
    9.1460  -35.2960    0.6810 C   0  0  0  0  0  0  0  0  0  0  0  0
   10.0680  -34.2320   -0.0020 C   0  0  0  0  0  0  0  0  0  0  0  0
   11.1540  -34.3450   -0.7640 C   0  0  0  0  0  0  0  0  0  0  0  0
    9.8400  -32.9160    0.0970 N   0  0  0  0  0  0  0  0  0  0  0  0
   10.6710  -32.3040   -0.5080 N   0  0  0  0  0  0  0  0  0  0  0  0
   11.4920  -33.0630   -1.0450 N   0  0  0  0  0  0  0  0  0  0  0  0
   12.5390  -32.3770   -1.8370 C   0  0  0  0  0  0  0  0  0  0  0  0
   13.8920  -32.5540   -1.1920 C   0  0  0  0  0  0  0  0  0  0  0  0
   13.8460  -31.6900   -0.0090 O   0  0  0  0  0  0  0  0  0  0  0  0
    8.1990  -33.2700    1.7500 C   0  0  0  0  0  0  0  0  0  0  0  0
    7.9000  -33.9880    3.0460 C   0  0  0  0  0  0  0  0  0  0  0  0
    8.7890  -34.4090    3.9150 C   0  0  0  0  0  0  0  0  0  0  0  0
    6.7020  -34.3740    3.4250 N   0  0  0  0  0  0  0  0  0  0  0  0
    6.8320  -34.9480    4.4920 N   0  0  0  0  0  0  0  0  0  0  0  0
    8.0740  -35.0230    4.8350 N   0  0  0  0  0  0  0  0  0  0  0  0
    8.6840  -35.5810    6.0310 C   0  0  0  0  0  0  0  0  0  0  0  0
    7.6730  -35.2920    7.1680 C   0  0  0  0  0  0  0  0  0  0  0  0
    7.5870  -33.8470    7.3880 O   0  0  0  0  0  0  0  0  0  0  0  0
   16.0650  -32.2710    0.6880 C   0  0  0  0  0  0  0  0  0  0  0  0
   15.0180  -31.1690    0.6260 C   0  0  2  0  0  0  0  0  0  0  0  0
   14.8450  -30.4630    1.9790 C   0  0  0  0  0  0  0  0  0  0  0  0
   16.0080  -29.5120    2.2870 C   0  0  1  0  0  0  0  0  0  0  0  0
   16.2690  -28.5650    1.1020 C   0  0  2  0  0  0  0  0  0  0  0  0
   16.4930  -29.4050   -0.1600 C   0  0  2  0  0  0  0  0  0  0  0  0
   16.8610  -28.5900   -1.4090 C   0  0  1  0  0  0  0  0  0  0  0  0
   17.0620  -29.4880   -2.6340 C   0  0  1  0  0  0  0  0  0  0  0  0
   17.9040  -28.8090   -3.7210 C   0  0  0  0  0  0  0  0  0  0  0  0
   17.4460  -26.4220    1.5220 C   0  0  0  0  0  0  0  0  0  0  0  0
   18.7970  -25.7970    1.6980 C   0  0  0  0  0  0  0  0  0  0  0  0
   17.4570  -27.7440    1.3060 N   0  0  0  0  0  0  0  0  0  0  0  0
   16.8890  -32.3660   -0.2580 O   0  5  0  0  0  0  0  0  0  0  0  0
   16.0830  -33.0700    1.6470 O   0  0  0  0  0  0  0  0  0  0  0  0
   15.7210  -28.8000    3.5070 O   0  0  0  0  0  0  0  0  0  0  0  0
   15.3470  -30.2310   -0.4330 O   0  0  0  0  0  0  0  0  0  0  0  0
   15.8530  -27.6390   -1.7180 O   0  0  0  0  0  0  0  0  0  0  0  0
   17.7250  -30.6800   -2.2160 O   0  0  0  0  0  0  0  0  0  0  0  0
   19.2030  -28.4310   -3.2030 O   0  0  0  0  0  0  0  0  0  0  0  0
   16.4400  -25.7330    1.6090 O   0  0  0  0  0  0  0  0  0  0  0  0
    7.7848  -26.0642   -0.0557 H   0  0  0  0  0  0  0  0  0  0  0  0
    7.1813  -26.6034    1.5480 H   0  0  0  0  0  0  0  0  0  0  0  0
    7.0015  -23.8295    0.3089 H   0  0  0  0  0  0  0  0  0  0  0  0
    5.8141  -24.7571    2.9613 H   0  0  0  0  0  0  0  0  0  0  0  0
    4.4639  -23.9948    0.3300 H   0  0  0  0  0  0  0  0  0  0  0  0
    3.0913  -23.2111    2.1915 H   0  0  0  0  0  0  0  0  0  0  0  0
    1.9422  -25.8512    1.2238 H   0  0  0  0  0  0  0  0  0  0  0  0
    0.5686  -24.4031    2.7665 H   0  0  0  0  0  0  0  0  0  0  0  0
   -0.1656  -24.6988    1.1540 H   0  0  0  0  0  0  0  0  0  0  0  0
    5.7650  -20.5005    4.7844 H   0  0  0  0  0  0  0  0  0  0  0  0
    4.6326  -20.4736    3.3903 H   0  0  0  0  0  0  0  0  0  0  0  0
    6.3974  -20.2789    3.1178 H   0  0  0  0  0  0  0  0  0  0  0  0
    5.4456  -22.1287    1.6039 H   0  0  0  0  0  0  0  0  0  0  0  0
    8.9728  -24.4370    1.3874 H   0  0  0  0  0  0  0  0  0  0  0  0
    3.9350  -24.6317    3.8170 H   0  0  0  0  0  0  0  0  0  0  0  0
    3.0250  -24.6945   -0.4936 H   0  0  0  0  0  0  0  0  0  0  0  0
    0.6370  -22.6012    0.5401 H   0  0  0  0  0  0  0  0  0  0  0  0
    7.2543  -31.0095    8.0137 H   0  0  0  0  0  0  0  0  0  0  0  0
    8.9912  -31.2912    7.6527 H   0  0  0  0  0  0  0  0  0  0  0  0
    7.7103  -30.9403   10.4060 H   0  0  0  0  0  0  0  0  0  0  0  0
   10.6482  -31.4060    9.6954 H   0  0  0  0  0  0  0  0  0  0  0  0
    8.5866  -33.2156   11.0186 H   0  0  0  0  0  0  0  0  0  0  0  0
   10.8422  -33.5368   11.9746 H   0  0  0  0  0  0  0  0  0  0  0  0
   10.3549  -35.8852   10.1403 H   0  0  0  0  0  0  0  0  0  0  0  0
   12.0040  -35.9817   12.0755 H   0  0  0  0  0  0  0  0  0  0  0  0
   10.7117  -37.2293   12.0869 H   0  0  0  0  0  0  0  0  0  0  0  0
   12.1671  -29.3858   13.5388 H   0  0  0  0  0  0  0  0  0  0  0  0
   11.2773  -30.8586   14.0543 H   0  0  0  0  0  0  0  0  0  0  0  0
   10.3778  -29.3468   13.6910 H   0  0  0  0  0  0  0  0  0  0  0  0
    9.3811  -31.3204   12.4035 H   0  0  0  0  0  0  0  0  0  0  0  0
    9.0704  -29.0657   10.3717 H   0  0  0  0  0  0  0  0  0  0  0  0
   12.4924  -34.2247   10.5039 H   0  0  0  0  0  0  0  0  0  0  0  0
    8.2802  -34.9851   10.7536 H   0  0  0  0  0  0  0  0  0  0  0  0
    9.6070  -35.8949   13.6484 H   0  0  0  0  0  0  0  0  0  0  0  0
    3.7522  -27.9844   -1.3709 H   0  0  0  0  0  0  0  0  0  0  0  0
    3.7555  -29.0753    0.0561 H   0  0  0  0  0  0  0  0  0  0  0  0
    6.1156  -29.2440   -1.8040 H   0  0  0  0  0  0  0  0  0  0  0  0
    4.5491  -29.8599   -2.4312 H   0  0  0  0  0  0  0  0  0  0  0  0
    7.0797  -31.7071   -1.9673 H   0  0  0  0  0  0  0  0  0  0  0  0
    7.9580  -33.9794   -1.1729 H   0  0  0  0  0  0  0  0  0  0  0  0
    6.5804  -35.0118   -0.6599 H   0  0  0  0  0  0  0  0  0  0  0  0
    7.2812  -35.0484    1.4032 H   0  0  0  0  0  0  0  0  0  0  0  0
    8.9591  -36.1585    0.0244 H   0  0  0  0  0  0  0  0  0  0  0  0
    9.5625  -35.6463    1.6369 H   0  0  0  0  0  0  0  0  0  0  0  0
   11.6548  -35.2566   -1.0868 H   0  0  0  0  0  0  0  0  0  0  0  0
   12.3037  -31.3041   -1.8955 H   0  0  0  0  0  0  0  0  0  0  0  0
   12.5631  -32.8030   -2.8509 H   0  0  0  0  0  0  0  0  0  0  0  0
   14.6937  -32.2367   -1.8751 H   0  0  0  0  0  0  0  0  0  0  0  0
   14.0511  -33.6031   -0.9021 H   0  0  0  0  0  0  0  0  0  0  0  0
    7.5170  -32.4290    1.5565 H   0  0  0  0  0  0  0  0  0  0  0  0
    9.2400  -32.9213    1.6813 H   0  0  0  0  0  0  0  0  0  0  0  0
    9.8699  -34.2802    3.8827 H   0  0  0  0  0  0  0  0  0  0  0  0
    9.6479  -35.0928    6.2373 H   0  0  0  0  0  0  0  0  0  0  0  0
    8.8385  -36.6641    5.9170 H   0  0  0  0  0  0  0  0  0  0  0  0
    8.0098  -35.7843    8.0922 H   0  0  0  0  0  0  0  0  0  0  0  0
    6.6830  -35.6796    6.8859 H   0  0  0  0  0  0  0  0  0  0  0  0
   14.7898  -31.2238    2.7715 H   0  0  0  0  0  0  0  0  0  0  0  0
   13.9095  -29.8846    1.9601 H   0  0  0  0  0  0  0  0  0  0  0  0
   16.9166  -30.1115    2.4452 H   0  0  0  0  0  0  0  0  0  0  0  0
   15.3953  -27.9106    0.9665 H   0  0  0  0  0  0  0  0  0  0  0  0
   17.3426  -30.0717    0.0492 H   0  0  0  0  0  0  0  0  0  0  0  0
   17.8010  -28.0567   -1.2044 H   0  0  0  0  0  0  0  0  0  0  0  0
   16.0778  -29.7418   -3.0546 H   0  0  0  0  0  0  0  0  0  0  0  0
   17.3800  -27.9083   -4.0733 H   0  0  0  0  0  0  0  0  0  0  0  0
   18.0395  -29.5064   -4.5608 H   0  0  0  0  0  0  0  0  0  0  0  0
   18.6817  -24.7165    1.8688 H   0  0  0  0  0  0  0  0  0  0  0  0
   19.3986  -25.9629    0.7922 H   0  0  0  0  0  0  0  0  0  0  0  0
   19.3022  -26.2529    2.5623 H   0  0  0  0  0  0  0  0  0  0  0  0
   18.3457  -28.2019    1.2829 H   0  0  0  0  0  0  0  0  0  0  0  0
   16.4599  -28.2464    3.7306 H   0  0  0  0  0  0  0  0  0  0  0  0
   16.1280  -27.1187   -2.4637 H   0  0  0  0  0  0  0  0  0  0  0  0
   17.2100  -31.1077   -1.5420 H   0  0  0  0  0  0  0  0  0  0  0  0
   19.0903  -27.8261   -2.4792 H   0  0  0  0  0  0  0  0  0  0  0  0
  1 13  1  0  0  0  0
  1 14  2  0  0  0  0
  2  1  1  6  0  0  0
  2  3  1  0  0  0  0
  2 16  1  0  0  0  0
  3  4  1  0  0  0  0
  3 89  1  0  0  0  0
  3 90  1  0  0  0  0
  4  5  1  0  0  0  0
  4 15  1  0  0  0  0
  4 91  1  6  0  0  0
  5 12  1  0  0  0  0
  5 92  1  1  0  0  0
  6  5  1  0  0  0  0
  6  7  1  0  0  0  0
  6 93  1  6  0  0  0
  7  8  1  0  0  0  0
  7 17  1  0  0  0  0
  7 94  1  1  0  0  0
  8  9  1  0  0  0  0
  8 18  1  0  0  0  0
  8 95  1  1  0  0  0
  9 19  1  0  0  0  0
  9 96  1  0  0  0  0
  9 97  1  0  0  0  0
 10 11  1  0  0  0  0
 10 20  2  0  0  0  0
 11 98  1  0  0  0  0
 11 99  1  0  0  0  0
 11100  1  0  0  0  0
 12 10  1  0  0  0  0
 12101  1  0  0  0  0
 15102  1  0  0  0  0
 16  6  1  0  0  0  0
 17103  1  0  0  0  0
 18104  1  0  0  0  0
 19105  1  0  0  0  0
 21 33  1  0  0  0  0
 21 34  2  0  0  0  0
 22 21  1  1  0  0  0
 22 23  1  0  0  0  0
 22 36  1  0  0  0  0
 23 24  1  0  0  0  0
 23106  1  0  0  0  0
 23107  1  0  0  0  0
 24 25  1  0  0  0  0
 24 35  1  0  0  0  0
 24108  1  1  0  0  0
 25 32  1  0  0  0  0
 25109  1  6  0  0  0
 26 25  1  0  0  0  0
 26 27  1  0  0  0  0
 26110  1  1  0  0  0
 27 28  1  0  0  0  0
 27 37  1  0  0  0  0
 27111  1  1  0  0  0
 28 29  1  0  0  0  0
 28 38  1  0  0  0  0
 28112  1  6  0  0  0
 29 39  1  0  0  0  0
 29113  1  0  0  0  0
 29114  1  0  0  0  0
 30 31  1  0  0  0  0
 30 40  2  0  0  0  0
 31115  1  0  0  0  0
 31116  1  0  0  0  0
 31117  1  0  0  0  0
 32 30  1  0  0  0  0
 32118  1  0  0  0  0
 35119  1  0  0  0  0
 36 26  1  0  0  0  0
 37120  1  0  0  0  0
 38121  1  0  0  0  0
 39122  1  0  0  0  0
 41  2  1  0  0  0  0
 42 41  1  0  0  0  0
 42123  1  0  0  0  0
 42124  1  0  0  0  0
 43 42  1  0  0  0  0
 43125  1  0  0  0  0
 43126  1  0  0  0  0
 44 43  1  0  0  0  0
 45 44  1  0  0  0  0
 45127  1  0  0  0  0
 46 44  1  0  0  0  0
 47 46  2  0  0  0  0
 48 45  2  0  0  0  0
 48 47  1  0  0  0  0
 49 48  1  0  0  0  0
 49128  1  0  0  0  0
 49129  1  0  0  0  0
 50 49  1  0  0  0  0
 50 60  1  0  0  0  0
 50130  1  1  0  0  0
 51 50  1  0  0  0  0
 51131  1  0  0  0  0
 51132  1  0  0  0  0
 52 51  1  0  0  0  0
 53 52  2  0  0  0  0
 53133  1  0  0  0  0
 54 52  1  0  0  0  0
 55 54  2  0  0  0  0
 56 53  1  0  0  0  0
 56 55  1  0  0  0  0
 57 56  1  0  0  0  0
 57134  1  0  0  0  0
 57135  1  0  0  0  0
 58 57  1  0  0  0  0
 58136  1  0  0  0  0
 58137  1  0  0  0  0
 59 58  1  0  0  0  0
 60 61  1  0  0  0  0
 60138  1  0  0  0  0
 60139  1  0  0  0  0
 61 62  2  0  0  0  0
 61 63  1  0  0  0  0
 62 65  1  0  0  0  0
 62140  1  0  0  0  0
 63 64  2  0  0  0  0
 64 65  1  0  0  0  0
 65 66  1  0  0  0  0
 66 67  1  0  0  0  0
 66141  1  0  0  0  0
 66142  1  0  0  0  0
 67 68  1  0  0  0  0
 67143  1  0  0  0  0
 67144  1  0  0  0  0
 68 22  1  0  0  0  0
 69 81  1  0  0  0  0
 69 82  2  0  0  0  0
 70 59  1  6  0  0  0
 70 69  1  0  0  0  0
 71 70  1  0  0  0  0
 71145  1  0  0  0  0
 71146  1  0  0  0  0
 72 71  1  0  0  0  0
 72 83  1  0  0  0  0
 72147  1  1  0  0  0
 73 72  1  0  0  0  0
 73 74  1  0  0  0  0
 73148  1  6  0  0  0
 74 75  1  0  0  0  0
 74 84  1  0  0  0  0
 74149  1  1  0  0  0
 75 76  1  0  0  0  0
 75 85  1  0  0  0  0
 75150  1  1  0  0  0
 76 77  1  0  0  0  0
 76 86  1  0  0  0  0
 76151  1  6  0  0  0
 77 87  1  0  0  0  0
 77152  1  0  0  0  0
 77153  1  0  0  0  0
 78 79  1  0  0  0  0
 78 80  1  0  0  0  0
 78 88  2  0  0  0  0
 79154  1  0  0  0  0
 79155  1  0  0  0  0
 79156  1  0  0  0  0
 80 73  1  0  0  0  0
 80157  1  0  0  0  0
 83158  1  0  0  0  0
 84 70  1  0  0  0  0
 85159  1  0  0  0  0
 86160  1  0  0  0  0
 87161  1  0  0  0  0
M  CHG  4  13  -1  33  -1  50   1  81  -1
M  END
