4k6u_ligand
 OpenBabel08222323353D

170175  0  0  1  0  0  0  0  0999 V2000
    8.3310   17.6420    7.9420 C   0  0  0  0  0  0  0  0  0  0  0  0
    7.4740   17.1070    9.0860 C   0  0  1  0  0  0  0  0  0  0  0  0
    7.4580   15.5710    9.1900 C   0  0  0  0  0  0  0  0  0  0  0  0
    8.7500   15.0240    9.8110 C   0  0  1  0  0  0  0  0  0  0  0  0
    9.1620   15.7320   11.1230 C   0  0  2  0  0  0  0  0  0  0  0  0
    9.1910   17.2360   10.8310 C   0  0  2  0  0  0  0  0  0  0  0  0
    9.5590   18.1320   12.0140 C   0  0  1  0  0  0  0  0  0  0  0  0
    9.4900   19.6060   11.5590 C   0  0  1  0  0  0  0  0  0  0  0  0
   10.1880   20.5530   12.5230 C   0  0  0  0  0  0  0  0  0  0  0  0
   10.7200   14.5890   12.6760 C   0  0  0  0  0  0  0  0  0  0  0  0
   12.1750   14.2740   12.9560 C   0  0  0  0  0  0  0  0  0  0  0  0
   10.4940   15.3300   11.5910 N   0  0  0  0  0  0  0  0  0  0  0  0
    8.2620   17.1100    6.8220 O   0  5  0  0  0  0  0  0  0  0  0  0
    9.0660   18.6360    8.1640 O   0  0  0  0  0  0  0  0  0  0  0  0
    8.5340   13.6230    9.9750 O   0  0  0  0  0  0  0  0  0  0  0  0
    7.9170   17.6760   10.3280 O   0  0  0  0  0  0  0  0  0  0  0  0
    8.6930   17.8890   13.1460 O   0  0  0  0  0  0  0  0  0  0  0  0
   10.0720   19.7690   10.2510 O   0  0  0  0  0  0  0  0  0  0  0  0
    9.6810   21.8840   12.3320 O   0  0  0  0  0  0  0  0  0  0  0  0
    9.8310   14.1640   13.4140 O   0  0  0  0  0  0  0  0  0  0  0  0
   -0.6800   16.0600   16.2800 C   0  0  0  0  0  0  0  0  0  0  0  0
   -0.5160   15.0130   15.1830 C   0  0  1  0  0  0  0  0  0  0  0  0
    0.8980   14.3550   15.1810 C   0  0  0  0  0  0  0  0  0  0  0  0
    1.0570   13.3520   16.3130 C   0  0  1  0  0  0  0  0  0  0  0  0
   -0.1100   12.3360   16.3080 C   0  0  2  0  0  0  0  0  0  0  0  0
   -1.4440   13.1010   16.3420 C   0  0  2  0  0  0  0  0  0  0  0  0
   -2.7060   12.2280   16.4050 C   0  0  1  0  0  0  0  0  0  0  0  0
   -3.9530   13.1520   16.3940 C   0  0  1  0  0  0  0  0  0  0  0  0
   -5.2260   12.4390   16.8200 C   0  0  0  0  0  0  0  0  0  0  0  0
    0.2450   10.2390   17.5440 C   0  0  0  0  0  0  0  0  0  0  0  0
    0.2050    9.6640   18.8980 C   0  0  0  0  0  0  0  0  0  0  0  0
   -0.0600   11.5480   17.5090 N   0  0  0  0  0  0  0  0  0  0  0  0
    0.1680   16.9780   16.3170 O   0  5  0  0  0  0  0  0  0  0  0  0
   -1.6210   16.0150   17.1260 O   0  0  0  0  0  0  0  0  0  0  0  0
    2.3300   12.6690   16.1580 O   0  0  0  0  0  0  0  0  0  0  0  0
   -1.5310   13.9870   15.2130 O   0  0  0  0  0  0  0  0  0  0  0  0
   -2.7640   11.4010   15.2630 O   0  0  0  0  0  0  0  0  0  0  0  0
   -3.7540   14.2230   17.3270 O   0  0  0  0  0  0  0  0  0  0  0  0
   -4.9720   11.8120   18.0900 O   0  0  0  0  0  0  0  0  0  0  0  0
    0.5440    9.5780   16.5800 O   0  0  0  0  0  0  0  0  0  0  0  0
   -0.3760   11.4980    6.2690 O   0  0  0  0  0  0  0  0  0  0  0  0
   -0.6600   12.1850    5.0410 C   0  0  0  0  0  0  0  0  0  0  0  0
   -1.9790   12.9380    5.1720 C   0  0  0  0  0  0  0  0  0  0  0  0
   -1.9810   14.1160    4.1800 C   0  0  0  0  0  0  0  0  0  0  0  0
   -1.4630   15.3610    4.8270 N   0  0  0  0  0  0  0  0  0  0  0  0
   -2.1370   16.5000    4.8590 C   0  0  0  0  0  0  0  0  0  0  0  0
   -0.3030   15.5580    5.4550 N   0  0  0  0  0  0  0  0  0  0  0  0
   -0.2320   16.7650    5.8720 N   0  0  0  0  0  0  0  0  0  0  0  0
   -1.3600   17.3550    5.4980 C   0  0  0  0  0  0  0  0  0  0  0  0
   -1.7150   18.7990    5.7910 C   0  0  0  0  0  0  0  0  0  0  0  0
   -1.2500   19.0880    7.1460 N   0  3  2  0  0  0  0  0  0  0  0  0
   -2.3210   18.8240    8.0900 C   0  0  0  0  0  0  0  0  0  0  0  0
   -1.5620   18.4770    9.3520 C   0  0  0  0  0  0  0  0  0  0  0  0
   -1.9110   18.7670   10.5880 C   0  0  0  0  0  0  0  0  0  0  0  0
   -0.4170   17.8060    9.3530 N   0  0  0  0  0  0  0  0  0  0  0  0
   -0.0680   17.6830   10.5230 N   0  0  0  0  0  0  0  0  0  0  0  0
   -0.9350   18.2370   11.3300 N   0  0  0  0  0  0  0  0  0  0  0  0
   -0.8110   18.2870   12.7700 C   0  0  0  0  0  0  0  0  0  0  0  0
   -1.9740   17.5280   13.3950 C   0  0  0  0  0  0  0  0  0  0  0  0
   -1.8160   16.0470   13.0120 C   0  0  0  0  0  0  0  0  0  0  0  0
   -0.7980   15.4460   13.8800 O   0  0  0  0  0  0  0  0  0  0  0  0
   -0.6990   20.3990    7.2760 C   0  0  0  0  0  0  0  0  0  0  0  0
    0.6640   20.1590    6.7350 C   0  0  0  0  0  0  0  0  0  0  0  0
    1.6730   19.6930    7.4290 C   0  0  0  0  0  0  0  0  0  0  0  0
    1.0180   20.3220    5.4750 N   0  0  0  0  0  0  0  0  0  0  0  0
    2.1720   20.0130    5.3870 N   0  0  0  0  0  0  0  0  0  0  0  0
    2.6440   19.6140    6.5290 N   0  0  0  0  0  0  0  0  0  0  0  0
    4.0080   19.2180    6.6520 C   0  0  0  0  0  0  0  0  0  0  0  0
    4.2110   18.7870    8.0790 C   0  0  0  0  0  0  0  0  0  0  0  0
    5.7150   18.9480    8.3370 C   0  0  0  0  0  0  0  0  0  0  0  0
    6.1870   17.7370    8.9680 O   0  0  0  0  0  0  0  0  0  0  0  0
   -1.4590    9.4250    5.8150 C   0  0  0  0  0  0  0  0  0  0  0  0
   -0.1600   10.0860    6.3130 C   0  0  2  0  0  0  0  0  0  0  0  0
    0.3020    9.5570    7.6700 C   0  0  0  0  0  0  0  0  0  0  0  0
    0.9670    8.1850    7.5660 C   0  0  1  0  0  0  0  0  0  0  0  0
    2.0280    8.0980    6.4670 C   0  0  2  0  0  0  0  0  0  0  0  0
    1.3530    8.5650    5.1970 C   0  0  2  0  0  0  0  0  0  0  0  0
    2.2400    8.4820    3.9690 C   0  0  1  0  0  0  0  0  0  0  0  0
    1.5270    8.9710    2.7460 C   0  0  1  0  0  0  0  0  0  0  0  0
    2.2440    8.4020    1.5300 C   0  0  0  0  0  0  0  0  0  0  0  0
    3.6530    6.2230    6.5700 C   0  0  0  0  0  0  0  0  0  0  0  0
    3.9000    4.7720    6.2930 C   0  0  0  0  0  0  0  0  0  0  0  0
    2.4530    6.7040    6.2340 N   0  0  0  0  0  0  0  0  0  0  0  0
   -1.5410    8.9920    4.6380 O   0  5  0  0  0  0  0  0  0  0  0  0
   -2.4070    9.3800    6.5900 O   0  0  0  0  0  0  0  0  0  0  0  0
    1.4960    7.8940    8.8290 O   0  0  0  0  0  0  0  0  0  0  0  0
    0.8790    9.9180    5.3550 O   0  0  0  0  0  0  0  0  0  0  0  0
    3.3540    9.3290    4.1360 O   0  0  0  0  0  0  0  0  0  0  0  0
    0.1850    8.5180    2.7460 O   0  0  0  0  0  0  0  0  0  0  0  0
    1.8610    9.1770    0.4040 O   0  0  0  0  0  0  0  0  0  0  0  0
    4.5040    6.8970    7.1100 O   0  0  0  0  0  0  0  0  0  0  0  0
    7.3419   15.1478    8.1813 H   0  0  0  0  0  0  0  0  0  0  0  0
    6.6063   15.2662    9.8159 H   0  0  0  0  0  0  0  0  0  0  0  0
    9.5710   15.1714    9.0940 H   0  0  0  0  0  0  0  0  0  0  0  0
    8.4221   15.5093   11.9059 H   0  0  0  0  0  0  0  0  0  0  0  0
    9.9481   17.3953   10.0490 H   0  0  0  0  0  0  0  0  0  0  0  0
   10.5916   17.9061   12.3185 H   0  0  0  0  0  0  0  0  0  0  0  0
    8.4288   19.8907   11.5071 H   0  0  0  0  0  0  0  0  0  0  0  0
   11.2709   20.5412   12.3303 H   0  0  0  0  0  0  0  0  0  0  0  0
    9.9961   20.2317   13.5574 H   0  0  0  0  0  0  0  0  0  0  0  0
   12.2489   13.6621   13.8671 H   0  0  0  0  0  0  0  0  0  0  0  0
   12.7324   15.2116   13.0979 H   0  0  0  0  0  0  0  0  0  0  0  0
   12.6002   13.7195   12.1064 H   0  0  0  0  0  0  0  0  0  0  0  0
   11.2855   15.6325   11.0600 H   0  0  0  0  0  0  0  0  0  0  0  0
    9.3340   13.2144   10.2842 H   0  0  0  0  0  0  0  0  0  0  0  0
    7.7960   18.0895   12.9059 H   0  0  0  0  0  0  0  0  0  0  0  0
    9.6434   19.1817    9.6395 H   0  0  0  0  0  0  0  0  0  0  0  0
   10.1161   22.4767   12.9335 H   0  0  0  0  0  0  0  0  0  0  0  0
    1.6573   15.1428   15.2944 H   0  0  0  0  0  0  0  0  0  0  0  0
    1.0479   13.8365   14.2225 H   0  0  0  0  0  0  0  0  0  0  0  0
    1.0524   13.8897   17.2726 H   0  0  0  0  0  0  0  0  0  0  0  0
   -0.0510   11.6932   15.4174 H   0  0  0  0  0  0  0  0  0  0  0  0
   -1.4346   13.7146   17.2549 H   0  0  0  0  0  0  0  0  0  0  0  0
   -2.6939   11.6138   17.3175 H   0  0  0  0  0  0  0  0  0  0  0  0
   -4.0852   13.5554   15.3792 H   0  0  0  0  0  0  0  0  0  0  0  0
   -5.4966   11.6775   16.0737 H   0  0  0  0  0  0  0  0  0  0  0  0
   -6.0470   13.1645   16.9179 H   0  0  0  0  0  0  0  0  0  0  0  0
    0.4637    8.5959   18.8505 H   0  0  0  0  0  0  0  0  0  0  0  0
   -0.8064    9.7780   19.3151 H   0  0  0  0  0  0  0  0  0  0  0  0
    0.9278   10.1881   19.5405 H   0  0  0  0  0  0  0  0  0  0  0  0
   -0.2655   12.0032   18.3754 H   0  0  0  0  0  0  0  0  0  0  0  0
    2.3362   12.1962   15.3339 H   0  0  0  0  0  0  0  0  0  0  0  0
   -3.5582   10.8805   15.2903 H   0  0  0  0  0  0  0  0  0  0  0  0
   -2.9644   14.6987   17.0976 H   0  0  0  0  0  0  0  0  0  0  0  0
   -4.7350   12.4752   18.7276 H   0  0  0  0  0  0  0  0  0  0  0  0
   -0.7346   11.4551    4.2215 H   0  0  0  0  0  0  0  0  0  0  0  0
    0.1491   12.8981    4.8244 H   0  0  0  0  0  0  0  0  0  0  0  0
   -2.0863   13.3192    6.1982 H   0  0  0  0  0  0  0  0  0  0  0  0
   -2.8151   12.2610    4.9430 H   0  0  0  0  0  0  0  0  0  0  0  0
   -3.0097   14.2922    3.8326 H   0  0  0  0  0  0  0  0  0  0  0  0
   -1.3418   13.8642    3.3209 H   0  0  0  0  0  0  0  0  0  0  0  0
   -3.1258   16.6917    4.4448 H   0  0  0  0  0  0  0  0  0  0  0  0
   -2.8040   18.9405    5.7274 H   0  0  0  0  0  0  0  0  0  0  0  0
   -1.2161   19.4641    5.0708 H   0  0  0  0  0  0  0  0  0  0  0  0
   -0.5045   18.4413    7.3513 H   0  0  0  0  0  0  0  0  0  0  0  0
   -2.9464   17.9824    7.7575 H   0  0  0  0  0  0  0  0  0  0  0  0
   -2.9511   19.7137    8.2363 H   0  0  0  0  0  0  0  0  0  0  0  0
   -2.7908   19.3122   10.9266 H   0  0  0  0  0  0  0  0  0  0  0  0
   -0.8314   19.3343   13.1057 H   0  0  0  0  0  0  0  0  0  0  0  0
    0.1385   17.8227   13.0747 H   0  0  0  0  0  0  0  0  0  0  0  0
   -2.9277   17.9166   13.0083 H   0  0  0  0  0  0  0  0  0  0  0  0
   -1.9499   17.6379   14.4892 H   0  0  0  0  0  0  0  0  0  0  0  0
   -1.5009   15.9674   11.9611 H   0  0  0  0  0  0  0  0  0  0  0  0
   -2.7744   15.5246   13.1481 H   0  0  0  0  0  0  0  0  0  0  0  0
   -0.6699   20.7277    8.3253 H   0  0  0  0  0  0  0  0  0  0  0  0
   -1.2527   21.1362    6.6760 H   0  0  0  0  0  0  0  0  0  0  0  0
    1.7062   19.4339    8.4862 H   0  0  0  0  0  0  0  0  0  0  0  0
    4.6703   20.0635    6.4144 H   0  0  0  0  0  0  0  0  0  0  0  0
    4.2221   18.3817    5.9702 H   0  0  0  0  0  0  0  0  0  0  0  0
    3.9067   17.7384    8.2124 H   0  0  0  0  0  0  0  0  0  0  0  0
    3.6319   19.4265    8.7614 H   0  0  0  0  0  0  0  0  0  0  0  0
    5.8910   19.8082    8.9996 H   0  0  0  0  0  0  0  0  0  0  0  0
    6.2434   19.1042    7.3850 H   0  0  0  0  0  0  0  0  0  0  0  0
   -0.5716    9.4765    8.3336 H   0  0  0  0  0  0  0  0  0  0  0  0
    1.0239   10.2676    8.0988 H   0  0  0  0  0  0  0  0  0  0  0  0
    0.1907    7.4421    7.3305 H   0  0  0  0  0  0  0  0  0  0  0  0
    2.8954    8.7264    6.7175 H   0  0  0  0  0  0  0  0  0  0  0  0
    0.4846    7.9121    5.0252 H   0  0  0  0  0  0  0  0  0  0  0  0
    2.5667    7.4417    3.8244 H   0  0  0  0  0  0  0  0  0  0  0  0
    1.5459   10.0704    2.7164 H   0  0  0  0  0  0  0  0  0  0  0  0
    1.9519    7.3522    1.3796 H   0  0  0  0  0  0  0  0  0  0  0  0
    3.3328    8.4627    1.6742 H   0  0  0  0  0  0  0  0  0  0  0  0
    4.9178    4.5055    6.6142 H   0  0  0  0  0  0  0  0  0  0  0  0
    3.7940    4.5813    5.2149 H   0  0  0  0  0  0  0  0  0  0  0  0
    3.1697    4.1635    6.8465 H   0  0  0  0  0  0  0  0  0  0  0  0
    1.8030    6.0816    5.7980 H   0  0  0  0  0  0  0  0  0  0  0  0
    1.8507    7.0127    8.8271 H   0  0  0  0  0  0  0  0  0  0  0  0
    3.9111    9.2728    3.3685 H   0  0  0  0  0  0  0  0  0  0  0  0
   -0.2671    8.8706    3.5035 H   0  0  0  0  0  0  0  0  0  0  0  0
    2.2955    8.8426   -0.3718 H   0  0  0  0  0  0  0  0  0  0  0  0
  1 13  1  0  0  0  0
  1 14  2  0  0  0  0
  2  1  1  6  0  0  0
  2  3  1  0  0  0  0
  2 16  1  0  0  0  0
  3  4  1  0  0  0  0
  3 92  1  0  0  0  0
  3 93  1  0  0  0  0
  4  5  1  0  0  0  0
  4 15  1  0  0  0  0
  4 94  1  6  0  0  0
  5 12  1  0  0  0  0
  5 95  1  1  0  0  0
  6  5  1  0  0  0  0
  6  7  1  0  0  0  0
  6 96  1  6  0  0  0
  7  8  1  0  0  0  0
  7 17  1  0  0  0  0
  7 97  1  1  0  0  0
  8  9  1  0  0  0  0
  8 18  1  0  0  0  0
  8 98  1  6  0  0  0
  9 19  1  0  0  0  0
  9 99  1  0  0  0  0
  9100  1  0  0  0  0
 10 11  1  0  0  0  0
 10 20  2  0  0  0  0
 11101  1  0  0  0  0
 11102  1  0  0  0  0
 11103  1  0  0  0  0
 12 10  1  0  0  0  0
 12104  1  0  0  0  0
 15105  1  0  0  0  0
 16  6  1  0  0  0  0
 17106  1  0  0  0  0
 18107  1  0  0  0  0
 19108  1  0  0  0  0
 21 33  1  0  0  0  0
 21 34  2  0  0  0  0
 22 21  1  1  0  0  0
 22 23  1  0  0  0  0
 22 36  1  0  0  0  0
 23 24  1  0  0  0  0
 23109  1  0  0  0  0
 23110  1  0  0  0  0
 24 25  1  0  0  0  0
 24 35  1  0  0  0  0
 24111  1  1  0  0  0
 25 32  1  0  0  0  0
 25112  1  6  0  0  0
 26 25  1  0  0  0  0
 26 27  1  0  0  0  0
 26113  1  1  0  0  0
 27 28  1  0  0  0  0
 27 37  1  0  0  0  0
 27114  1  1  0  0  0
 28 29  1  0  0  0  0
 28 38  1  0  0  0  0
 28115  1  6  0  0  0
 29 39  1  0  0  0  0
 29116  1  0  0  0  0
 29117  1  0  0  0  0
 30 31  1  0  0  0  0
 30 40  2  0  0  0  0
 31118  1  0  0  0  0
 31119  1  0  0  0  0
 31120  1  0  0  0  0
 32 30  1  0  0  0  0
 32121  1  0  0  0  0
 35122  1  0  0  0  0
 36 26  1  0  0  0  0
 37123  1  0  0  0  0
 38124  1  0  0  0  0
 39125  1  0  0  0  0
 41 42  1  0  0  0  0
 42 43  1  0  0  0  0
 42126  1  0  0  0  0
 42127  1  0  0  0  0
 43 44  1  0  0  0  0
 43128  1  0  0  0  0
 43129  1  0  0  0  0
 44 45  1  0  0  0  0
 44130  1  0  0  0  0
 44131  1  0  0  0  0
 45 46  1  0  0  0  0
 45 47  1  0  0  0  0
 46 49  2  0  0  0  0
 46132  1  0  0  0  0
 47 48  2  0  0  0  0
 48 49  1  0  0  0  0
 49 50  1  0  0  0  0
 50 51  1  0  0  0  0
 50133  1  0  0  0  0
 50134  1  0  0  0  0
 51 52  1  0  0  0  0
 51 62  1  0  0  0  0
 51135  1  1  0  0  0
 52 53  1  0  0  0  0
 52136  1  0  0  0  0
 52137  1  0  0  0  0
 53 54  2  0  0  0  0
 53 55  1  0  0  0  0
 54 57  1  0  0  0  0
 54138  1  0  0  0  0
 55 56  2  0  0  0  0
 56 57  1  0  0  0  0
 57 58  1  0  0  0  0
 58 59  1  0  0  0  0
 58139  1  0  0  0  0
 58140  1  0  0  0  0
 59 60  1  0  0  0  0
 59141  1  0  0  0  0
 59142  1  0  0  0  0
 60 61  1  0  0  0  0
 60143  1  0  0  0  0
 60144  1  0  0  0  0
 61 22  1  0  0  0  0
 62 63  1  0  0  0  0
 62145  1  0  0  0  0
 62146  1  0  0  0  0
 63 64  2  0  0  0  0
 63 65  1  0  0  0  0
 64 67  1  0  0  0  0
 64147  1  0  0  0  0
 65 66  2  0  0  0  0
 66 67  1  0  0  0  0
 67 68  1  0  0  0  0
 68 69  1  0  0  0  0
 68148  1  0  0  0  0
 68149  1  0  0  0  0
 69 70  1  0  0  0  0
 69150  1  0  0  0  0
 69151  1  0  0  0  0
 70 71  1  0  0  0  0
 70152  1  0  0  0  0
 70153  1  0  0  0  0
 71  2  1  0  0  0  0
 72 84  1  0  0  0  0
 72 85  2  0  0  0  0
 73 41  1  1  0  0  0
 73 72  1  0  0  0  0
 74 73  1  0  0  0  0
 74154  1  0  0  0  0
 74155  1  0  0  0  0
 75 74  1  0  0  0  0
 75 86  1  0  0  0  0
 75156  1  6  0  0  0
 76 75  1  0  0  0  0
 76 77  1  0  0  0  0
 76157  1  1  0  0  0
 77 78  1  0  0  0  0
 77 87  1  0  0  0  0
 77158  1  6  0  0  0
 78 79  1  0  0  0  0
 78 88  1  0  0  0  0
 78159  1  6  0  0  0
 79 80  1  0  0  0  0
 79 89  1  0  0  0  0
 79160  1  6  0  0  0
 80 90  1  0  0  0  0
 80161  1  0  0  0  0
 80162  1  0  0  0  0
 81 82  1  0  0  0  0
 81 83  1  0  0  0  0
 81 91  2  0  0  0  0
 82163  1  0  0  0  0
 82164  1  0  0  0  0
 82165  1  0  0  0  0
 83 76  1  0  0  0  0
 83166  1  0  0  0  0
 86167  1  0  0  0  0
 87 73  1  0  0  0  0
 88168  1  0  0  0  0
 89169  1  0  0  0  0
 90170  1  0  0  0  0
M  CHG  4  13  -1  33  -1  51   1  84  -1
M  END
