4k72_ligand
 OpenBabel08222323353D

 64 63  0  0  1  0  0  0  0  0999 V2000
   -5.3110   24.4770   45.1570 N   0  3  0  0  0  0  0  0  0  0  0  0
   -3.9830   24.7430   44.6700 C   0  0  2  0  0  0  0  0  0  0  0  0
   -3.0830   23.7650   45.3400 C   0  0  0  0  0  0  0  0  0  0  0  0
   -3.3840   23.4000   46.4610 O   0  0  0  0  0  0  0  0  0  0  0  0
   -3.6080   26.1440   45.0870 C   0  0  0  0  0  0  0  0  0  0  0  0
   -4.5380   27.1340   44.5380 C   0  0  0  0  0  0  0  0  0  0  0  0
   -5.5060   26.6990   43.9510 O   0  5  0  0  0  0  0  0  0  0  0  0
   -4.3270   28.3020   44.6560 O   0  0  0  0  0  0  0  0  0  0  0  0
   -1.9910   23.3390   44.7180 N   0  0  0  0  0  0  0  0  0  0  0  0
   -1.0280   22.6040   45.5290 C   0  0  2  0  0  0  0  0  0  0  0  0
    0.0240   23.5140   46.1520 C   0  0  0  0  0  0  0  0  0  0  0  0
    0.5390   24.4190   45.4970 O   0  0  0  0  0  0  0  0  0  0  0  0
   -0.3380   21.5520   44.6710 C   0  0  0  0  0  0  0  0  0  0  0  0
   -1.2920   20.7570   43.9990 O   0  0  0  0  0  0  0  0  0  0  0  0
    0.3470   23.2570   47.4180 N   0  0  0  0  0  0  0  0  0  0  0  0
    1.3990   23.9970   48.1090 C   0  0  2  0  0  0  0  0  0  0  0  0
    2.7280   23.2900   47.9070 C   0  0  0  0  0  0  0  0  0  0  0  0
    2.8260   22.0790   48.1040 O   0  0  0  0  0  0  0  0  0  0  0  0
    1.1440   24.0680   49.6240 C   0  0  2  0  0  0  0  0  0  0  0  0
   -0.3210   24.3990   49.9290 C   0  0  0  0  0  0  0  0  0  0  0  0
    2.1260   25.0450   50.2920 C   0  0  0  0  0  0  0  0  0  0  0  0
   -0.8630   25.6050   49.2020 C   0  0  0  0  0  0  0  0  0  0  0  0
    3.7510   24.0440   47.5180 N   0  0  0  0  0  0  0  0  0  0  0  0
    5.0790   23.4830   47.3090 C   0  0  2  0  0  0  0  0  0  0  0  0
    6.1330   24.3660   47.9590 C   0  0  0  0  0  0  0  0  0  0  0  0
    5.9160   25.5600   48.1550 O   0  5  0  0  0  0  0  0  0  0  0  0
    5.4300   23.3440   45.8050 C   0  0  2  0  0  0  0  0  0  0  0  0
    4.2550   22.7560   45.0200 C   0  0  0  0  0  0  0  0  0  0  0  0
    6.6850   22.4920   45.6270 C   0  0  0  0  0  0  0  0  0  0  0  0
    4.4720   22.7700   43.5070 C   0  0  0  0  0  0  0  0  0  0  0  0
    7.2250   23.8980   48.2790 O   0  0  0  0  0  0  0  0  0  0  0  0
   -5.9605   25.1183   44.7292 H   0  0  0  0  0  0  0  0  0  0  0  0
   -5.3319   24.5954   46.1578 H   0  0  0  0  0  0  0  0  0  0  0  0
   -5.5708   23.5311   44.9251 H   0  0  0  0  0  0  0  0  0  0  0  0
   -3.9314   24.6379   43.5763 H   0  0  0  0  0  0  0  0  0  0  0  0
   -2.5939   26.3660   44.7233 H   0  0  0  0  0  0  0  0  0  0  0  0
   -3.6258   26.2071   46.1850 H   0  0  0  0  0  0  0  0  0  0  0  0
   -1.8369   23.5128   43.7453 H   0  0  0  0  0  0  0  0  0  0  0  0
   -1.5737   22.1003   46.3404 H   0  0  0  0  0  0  0  0  0  0  0  0
    0.2801   20.9088   45.3146 H   0  0  0  0  0  0  0  0  0  0  0  0
    0.3022   22.0527   43.9298 H   0  0  0  0  0  0  0  0  0  0  0  0
   -1.8259   21.3095   43.4402 H   0  0  0  0  0  0  0  0  0  0  0  0
   -0.1444   22.5375   47.9089 H   0  0  0  0  0  0  0  0  0  0  0  0
    1.4502   25.0161   47.6981 H   0  0  0  0  0  0  0  0  0  0  0  0
    1.3433   23.0696   50.0405 H   0  0  0  0  0  0  0  0  0  0  0  0
   -0.4125   24.5816   51.0099 H   0  0  0  0  0  0  0  0  0  0  0  0
   -0.9333   23.5285   49.6511 H   0  0  0  0  0  0  0  0  0  0  0  0
    3.1574   24.7587   50.0385 H   0  0  0  0  0  0  0  0  0  0  0  0
    1.9933   25.0094   51.3834 H   0  0  0  0  0  0  0  0  0  0  0  0
    1.9298   26.0657   49.9319 H   0  0  0  0  0  0  0  0  0  0  0  0
   -1.9147   25.7611   49.4841 H   0  0  0  0  0  0  0  0  0  0  0  0
   -0.7952   25.4400   48.1166 H   0  0  0  0  0  0  0  0  0  0  0  0
   -0.2744   26.4931   49.4754 H   0  0  0  0  0  0  0  0  0  0  0  0
    3.6054   25.0214   47.3649 H   0  0  0  0  0  0  0  0  0  0  0  0
    5.1089   22.4856   47.7720 H   0  0  0  0  0  0  0  0  0  0  0  0
    5.6377   24.3482   45.4071 H   0  0  0  0  0  0  0  0  0  0  0  0
    3.3533   23.3430   45.2489 H   0  0  0  0  0  0  0  0  0  0  0  0
    4.1061   21.7147   45.3418 H   0  0  0  0  0  0  0  0  0  0  0  0
    7.5131   22.9349   46.1998 H   0  0  0  0  0  0  0  0  0  0  0  0
    6.9550   22.4550   44.5613 H   0  0  0  0  0  0  0  0  0  0  0  0
    6.4909   21.4726   45.9918 H   0  0  0  0  0  0  0  0  0  0  0  0
    3.5940   22.3355   43.0067 H   0  0  0  0  0  0  0  0  0  0  0  0
    5.3654   22.1781   43.2592 H   0  0  0  0  0  0  0  0  0  0  0  0
    4.6126   23.8064   43.1663 H   0  0  0  0  0  0  0  0  0  0  0  0
  1  2  1  0  0  0  0
  1 32  1  0  0  0  0
  1 33  1  0  0  0  0
  1 34  1  0  0  0  0
  2  3  1  0  0  0  0
  2  5  1  0  0  0  0
  2 35  1  6  0  0  0
  3  4  2  0  0  0  0
  3  9  1  0  0  0  0
  5  6  1  0  0  0  0
  5 36  1  0  0  0  0
  5 37  1  0  0  0  0
  6  7  1  0  0  0  0
  6  8  2  0  0  0  0
  9 10  1  0  0  0  0
  9 38  1  0  0  0  0
 10 11  1  0  0  0  0
 10 13  1  0  0  0  0
 10 39  1  1  0  0  0
 11 12  2  0  0  0  0
 11 15  1  0  0  0  0
 13 14  1  0  0  0  0
 13 40  1  0  0  0  0
 13 41  1  0  0  0  0
 14 42  1  0  0  0  0
 15 16  1  0  0  0  0
 15 43  1  0  0  0  0
 16 17  1  0  0  0  0
 16 19  1  0  0  0  0
 16 44  1  6  0  0  0
 17 18  2  0  0  0  0
 17 23  1  0  0  0  0
 19 20  1  0  0  0  0
 19 21  1  0  0  0  0
 19 45  1  1  0  0  0
 20 22  1  0  0  0  0
 20 46  1  0  0  0  0
 20 47  1  0  0  0  0
 21 48  1  0  0  0  0
 21 49  1  0  0  0  0
 21 50  1  0  0  0  0
 22 51  1  0  0  0  0
 22 52  1  0  0  0  0
 22 53  1  0  0  0  0
 23 24  1  0  0  0  0
 23 54  1  0  0  0  0
 24 25  1  0  0  0  0
 24 27  1  0  0  0  0
 24 55  1  1  0  0  0
 25 26  1  0  0  0  0
 25 31  2  0  0  0  0
 27 28  1  0  0  0  0
 27 29  1  0  0  0  0
 27 56  1  6  0  0  0
 28 30  1  0  0  0  0
 28 57  1  0  0  0  0
 28 58  1  0  0  0  0
 29 59  1  0  0  0  0
 29 60  1  0  0  0  0
 29 61  1  0  0  0  0
 30 62  1  0  0  0  0
 30 63  1  0  0  0  0
 30 64  1  0  0  0  0
M  CHG  3   1   1   7  -1  26  -1
M  END
