4k75_ligand
 OpenBabel08222323353D

137138  0  0  1  0  0  0  0  0999 V2000
   29.4900   23.9320   30.2340 N   0  3  0  0  0  0  0  0  0  0  0  0
   30.0220   23.5950   31.5490 C   0  0  2  0  0  0  0  0  0  0  0  0
   28.9220   23.3280   32.5800 C   0  0  0  0  0  0  0  0  0  0  0  0
   29.1980   23.2470   33.7770 O   0  0  0  0  0  0  0  0  0  0  0  0
   30.9540   24.7050   32.0520 C   0  0  0  0  0  0  0  0  0  0  0  0
   30.7360   26.0630   31.3910 C   0  0  0  0  0  0  0  0  0  0  0  0
   31.4870   27.1820   32.1140 C   0  0  0  0  0  0  0  0  0  0  0  0
   30.7510   27.6790   33.2750 N   0  0  0  0  0  0  0  0  0  0  0  0
   31.1010   28.7420   33.9960 C   0  0  0  0  0  3  0  0  0  0  0  0
   32.1880   29.4400   33.6880 N   0  0  0  0  0  0  0  0  0  0  0  0
   30.3560   29.1110   35.0310 N   0  0  0  0  0  0  0  0  0  0  0  0
   27.6830   23.1760   32.1150 N   0  0  0  0  0  0  0  0  0  0  0  0
   26.5380   23.0440   33.0190 C   0  0  2  0  0  0  0  0  0  0  0  0
   25.9880   21.6220   33.1160 C   0  0  0  0  0  0  0  0  0  0  0  0
   25.8780   20.9170   32.1110 O   0  0  0  0  0  0  0  0  0  0  0  0
   25.4030   23.9670   32.5730 C   0  0  0  0  0  0  0  0  0  0  0  0
   25.7710   25.4080   32.4800 C   0  0  0  0  0  0  0  0  0  0  0  0
   26.9810   25.9710   32.7680 C   0  0  0  0  0  0  0  0  0  0  0  0
   24.9150   26.4790   32.0720 C   0  0  0  0  0  0  0  0  0  0  0  0
   26.9300   27.3290   32.5630 N   0  0  0  0  0  0  0  0  0  0  0  0
   25.6730   27.6650   32.1310 C   0  0  0  0  0  0  0  0  0  0  0  0
   23.5820   26.5490   31.6570 C   0  0  0  0  0  0  0  0  0  0  0  0
   25.1420   28.9050   31.7970 C   0  0  0  0  0  0  0  0  0  0  0  0
   23.0560   27.7830   31.3180 C   0  0  0  0  0  0  0  0  0  0  0  0
   23.8340   28.9450   31.3930 C   0  0  0  0  0  0  0  0  0  0  0  0
   25.6080   21.2090   34.3060 N   0  0  0  0  0  0  0  0  0  0  0  0
   24.9090   19.9630   34.4740 C   0  0  2  0  0  0  0  0  0  0  0  0
   23.5400   20.0310   33.7960 C   0  0  0  0  0  0  0  0  0  0  0  0
   22.9760   21.0640   33.6980 O   0  0  0  0  0  0  0  0  0  0  0  0
   24.7270   19.6830   35.9690 C   0  0  0  0  0  0  0  0  0  0  0  0
   26.0110   19.8620   36.7360 C   0  0  0  0  0  0  0  0  0  0  0  0
   25.8460   20.1150   38.2090 C   0  0  0  0  0  0  0  0  0  0  0  0
   25.5180   19.2240   38.9880 O   0  0  0  0  0  0  0  0  0  0  0  0
   26.1070   21.3220   38.5960 N   0  0  0  0  0  0  0  0  0  0  0  0
   23.0200   18.8900   33.4230 N   0  0  0  0  0  0  0  0  0  0  0  0
   21.6860   18.8130   32.8470 C   0  0  2  0  0  0  0  0  0  0  0  0
   20.9860   17.5600   33.3600 C   0  0  0  0  0  0  0  0  0  0  0  0
   21.5040   16.4530   33.2180 O   0  0  0  0  0  0  0  0  0  0  0  0
   21.7760   18.7890   31.3240 C   0  0  0  0  0  0  0  0  0  0  0  0
   20.4190   18.7940   30.6630 C   0  0  0  0  0  0  0  0  0  0  0  0
   19.9390   19.8920   30.3130 O   0  5  0  0  0  0  0  0  0  0  0  0
   19.8370   17.7020   30.4950 O   0  0  0  0  0  0  0  0  0  0  0  0
   19.8080   17.7300   33.9550 N   0  0  0  0  0  0  0  0  0  0  0  0
   19.1340   16.6200   34.6280 C   0  0  2  0  0  0  0  0  0  0  0  0
   17.6840   16.4560   34.1940 C   0  0  0  0  0  0  0  0  0  0  0  0
   16.9100   17.4080   34.2310 O   0  0  0  0  0  0  0  0  0  0  0  0
   19.1810   16.7980   36.1490 C   0  0  2  0  0  0  0  0  0  0  0  0
   20.5480   16.9060   36.5650 O   0  0  0  0  0  0  0  0  0  0  0  0
   18.5070   15.6250   36.8590 C   0  0  0  0  0  0  0  0  0  0  0  0
   17.3260   15.2460   33.7780 N   0  0  0  0  0  0  0  0  0  0  0  0
   15.9450   14.9130   33.4570 C   0  0  2  0  0  0  0  0  0  0  0  0
   15.1230   14.6120   34.7120 C   0  0  0  0  0  0  0  0  0  0  0  0
   15.5430   13.8310   35.5850 O   0  0  0  0  0  0  0  0  0  0  0  0
   15.9000   13.7260   32.4960 C   0  0  0  0  0  0  0  0  0  0  0  0
   14.5090   13.3590   32.0360 C   0  0  0  0  0  0  0  0  0  0  0  0
   14.5890   12.4280   30.8390 C   0  0  0  0  0  0  0  0  0  0  0  0
   13.2720   12.0290   30.3550 N   0  0  0  0  0  0  0  0  0  0  0  0
   13.0580   11.4840   29.1600 C   0  0  0  0  0  3  0  0  0  0  0  0
   14.0730   11.2850   28.3310 N   0  0  0  0  0  0  0  0  0  0  0  0
   11.8320   11.1440   28.7920 N   0  0  0  0  0  0  0  0  0  0  0  0
   13.9470   15.2290   34.8000 N   0  0  0  0  0  0  0  0  0  0  0  0
   13.0720   15.1020   35.9590 C   0  0  2  0  0  0  0  0  0  0  0  0
   11.6810   14.6390   35.5530 C   0  0  0  0  0  0  0  0  0  0  0  0
   11.3250   14.6770   34.3670 O   0  5  0  0  0  0  0  0  0  0  0  0
   12.9470   16.4490   36.6820 C   0  0  0  0  0  0  0  0  0  0  0  0
   14.2430   17.1670   37.0570 C   0  0  0  0  0  0  0  0  0  0  0  0
   13.9590   18.6030   37.4830 C   0  0  0  0  0  0  0  0  0  0  0  0
   14.9760   16.4140   38.1570 C   0  0  0  0  0  0  0  0  0  0  0  0
   10.8810   14.2560   36.4050 O   0  0  0  0  0  0  0  0  0  0  0  0
   30.2522   24.0975   29.5955 H   0  0  0  0  0  0  0  0  0  0  0  0
   28.9236   24.7629   30.3035 H   0  0  0  0  0  0  0  0  0  0  0  0
   28.9265   23.1686   29.8938 H   0  0  0  0  0  0  0  0  0  0  0  0
   30.6127   22.6732   31.4431 H   0  0  0  0  0  0  0  0  0  0  0  0
   31.9920   24.3938   31.8631 H   0  0  0  0  0  0  0  0  0  0  0  0
   30.7971   24.8209   33.1346 H   0  0  0  0  0  0  0  0  0  0  0  0
   29.6605   26.2937   31.4009 H   0  0  0  0  0  0  0  0  0  0  0  0
   31.0906   26.0123   30.3510 H   0  0  0  0  0  0  0  0  0  0  0  0
   31.6452   28.0139   31.4119 H   0  0  0  0  0  0  0  0  0  0  0  0
   32.4605   26.7958   32.4503 H   0  0  0  0  0  0  0  0  0  0  0  0
   29.9005   27.1702   33.5554 H   0  0  0  0  0  0  0  0  0  0  0  0
   32.4500   30.2609   34.2523 H   0  0  0  0  0  0  0  0  0  0  0  0
   32.7691   29.1605   32.8848 H   0  0  0  0  0  0  0  0  0  0  0  0
   29.5117   28.5740   35.2753 H   0  0  0  0  0  0  0  0  0  0  0  0
   30.6223   29.9343   35.5897 H   0  0  0  0  0  0  0  0  0  0  0  0
   27.5312   23.1515   31.1269 H   0  0  0  0  0  0  0  0  0  0  0  0
   26.8688   23.3500   34.0225 H   0  0  0  0  0  0  0  0  0  0  0  0
   24.5789   23.8700   33.2951 H   0  0  0  0  0  0  0  0  0  0  0  0
   25.0622   23.6360   31.5809 H   0  0  0  0  0  0  0  0  0  0  0  0
   27.8583   25.4240   33.1101 H   0  0  0  0  0  0  0  0  0  0  0  0
   27.7089   27.9868   32.7099 H   0  0  0  0  0  0  0  0  0  0  0  0
   22.9725   25.6543   31.6019 H   0  0  0  0  0  0  0  0  0  0  0  0
   25.7407   29.8069   31.8541 H   0  0  0  0  0  0  0  0  0  0  0  0
   22.0254   27.8514   30.9891 H   0  0  0  0  0  0  0  0  0  0  0  0
   23.3910   29.8975   31.1253 H   0  0  0  0  0  0  0  0  0  0  0  0
   25.8087   21.7714   35.1081 H   0  0  0  0  0  0  0  0  0  0  0  0
   25.4979   19.1525   34.0199 H   0  0  0  0  0  0  0  0  0  0  0  0
   24.3783   18.6476   36.0967 H   0  0  0  0  0  0  0  0  0  0  0  0
   23.9734   20.3760   36.3712 H   0  0  0  0  0  0  0  0  0  0  0  0
   26.5504   20.7168   36.3021 H   0  0  0  0  0  0  0  0  0  0  0  0
   26.6114   18.9486   36.6127 H   0  0  0  0  0  0  0  0  0  0  0  0
   26.0201   21.5673   39.5615 H   0  0  0  0  0  0  0  0  0  0  0  0
   26.3956   22.0094   37.9295 H   0  0  0  0  0  0  0  0  0  0  0  0
   23.5519   18.0508   33.5364 H   0  0  0  0  0  0  0  0  0  0  0  0
   21.1091   19.6973   33.1554 H   0  0  0  0  0  0  0  0  0  0  0  0
   22.3142   17.8801   31.0170 H   0  0  0  0  0  0  0  0  0  0  0  0
   22.3340   19.6761   30.9899 H   0  0  0  0  0  0  0  0  0  0  0  0
   19.3762   18.6319   33.9418 H   0  0  0  0  0  0  0  0  0  0  0  0
   19.6728   15.6966   34.3692 H   0  0  0  0  0  0  0  0  0  0  0  0
   18.6498   17.7235   36.4159 H   0  0  0  0  0  0  0  0  0  0  0  0
   20.9482   17.6565   36.1419 H   0  0  0  0  0  0  0  0  0  0  0  0
   18.5551   15.7785   37.9472 H   0  0  0  0  0  0  0  0  0  0  0  0
   19.0256   14.6909   36.5972 H   0  0  0  0  0  0  0  0  0  0  0  0
   17.4550   15.5611   36.5439 H   0  0  0  0  0  0  0  0  0  0  0  0
   18.0282   14.5405   33.6821 H   0  0  0  0  0  0  0  0  0  0  0  0
   15.4933   15.7816   32.9555 H   0  0  0  0  0  0  0  0  0  0  0  0
   16.3377   12.8536   33.0034 H   0  0  0  0  0  0  0  0  0  0  0  0
   16.5025   13.9754   31.6101 H   0  0  0  0  0  0  0  0  0  0  0  0
   13.9660   14.2724   31.7518 H   0  0  0  0  0  0  0  0  0  0  0  0
   13.9752   12.8548   32.8550 H   0  0  0  0  0  0  0  0  0  0  0  0
   15.1465   11.5255   31.1302 H   0  0  0  0  0  0  0  0  0  0  0  0
   15.1228   12.9426   30.0264 H   0  0  0  0  0  0  0  0  0  0  0  0
   12.4617   12.1775   30.9733 H   0  0  0  0  0  0  0  0  0  0  0  0
   13.9074   10.8632   27.4060 H   0  0  0  0  0  0  0  0  0  0  0  0
   15.0273   11.5522   28.6118 H   0  0  0  0  0  0  0  0  0  0  0  0
   11.0407   11.2970   29.4333 H   0  0  0  0  0  0  0  0  0  0  0  0
   11.6698   10.7265   27.8645 H   0  0  0  0  0  0  0  0  0  0  0  0
   13.6508   15.8047   34.0379 H   0  0  0  0  0  0  0  0  0  0  0  0
   13.5073   14.3627   36.6474 H   0  0  0  0  0  0  0  0  0  0  0  0
   12.3855   16.2741   37.6116 H   0  0  0  0  0  0  0  0  0  0  0  0
   12.3735   17.1227   36.0284 H   0  0  0  0  0  0  0  0  0  0  0  0
   14.8908   17.1938   36.1684 H   0  0  0  0  0  0  0  0  0  0  0  0
   14.9036   19.1004   37.7481 H   0  0  0  0  0  0  0  0  0  0  0  0
   13.2884   18.6010   38.3550 H   0  0  0  0  0  0  0  0  0  0  0  0
   13.4801   19.1437   36.6534 H   0  0  0  0  0  0  0  0  0  0  0  0
   15.1701   15.3823   37.8285 H   0  0  0  0  0  0  0  0  0  0  0  0
   14.3571   16.3989   39.0662 H   0  0  0  0  0  0  0  0  0  0  0  0
   15.9308   16.9162   38.3717 H   0  0  0  0  0  0  0  0  0  0  0  0
  1  2  1  0  0  0  0
  1 70  1  0  0  0  0
  1 71  1  0  0  0  0
  1 72  1  0  0  0  0
  2  3  1  0  0  0  0
  2  5  1  0  0  0  0
  2 73  1  6  0  0  0
  3  4  2  0  0  0  0
  3 12  1  0  0  0  0
  5  6  1  0  0  0  0
  5 74  1  0  0  0  0
  5 75  1  0  0  0  0
  6  7  1  0  0  0  0
  6 76  1  0  0  0  0
  6 77  1  0  0  0  0
  7  8  1  0  0  0  0
  7 78  1  0  0  0  0
  7 79  1  0  0  0  0
  8  9  1  0  0  0  0
  8 80  1  0  0  0  0
  9 10  1  0  0  0  0
  9 11  1  0  0  0  0
 10 81  1  0  0  0  0
 10 82  1  0  0  0  0
 11 83  1  0  0  0  0
 11 84  1  0  0  0  0
 12 13  1  0  0  0  0
 12 85  1  0  0  0  0
 13 14  1  0  0  0  0
 13 16  1  0  0  0  0
 13 86  1  1  0  0  0
 14 15  2  0  0  0  0
 14 26  1  0  0  0  0
 16 17  1  0  0  0  0
 16 87  1  0  0  0  0
 16 88  1  0  0  0  0
 17 18  2  0  0  0  0
 17 19  1  0  0  0  0
 18 20  1  0  0  0  0
 18 89  1  0  0  0  0
 19 21  2  0  0  0  0
 19 22  1  0  0  0  0
 20 21  1  0  0  0  0
 20 90  1  0  0  0  0
 21 23  1  0  0  0  0
 22 24  2  0  0  0  0
 22 91  1  0  0  0  0
 23 25  2  0  0  0  0
 23 92  1  0  0  0  0
 24 25  1  0  0  0  0
 24 93  1  0  0  0  0
 25 94  1  0  0  0  0
 26 27  1  0  0  0  0
 26 95  1  0  0  0  0
 27 28  1  0  0  0  0
 27 30  1  0  0  0  0
 27 96  1  6  0  0  0
 28 29  2  0  0  0  0
 28 35  1  0  0  0  0
 30 31  1  0  0  0  0
 30 97  1  0  0  0  0
 30 98  1  0  0  0  0
 31 32  1  0  0  0  0
 31 99  1  0  0  0  0
 31100  1  0  0  0  0
 32 33  2  0  0  0  0
 32 34  1  0  0  0  0
 34101  1  0  0  0  0
 34102  1  0  0  0  0
 35 36  1  0  0  0  0
 35103  1  0  0  0  0
 36 37  1  0  0  0  0
 36 39  1  0  0  0  0
 36104  1  1  0  0  0
 37 38  2  0  0  0  0
 37 43  1  0  0  0  0
 39 40  1  0  0  0  0
 39105  1  0  0  0  0
 39106  1  0  0  0  0
 40 41  1  0  0  0  0
 40 42  2  0  0  0  0
 43 44  1  0  0  0  0
 43107  1  0  0  0  0
 44 45  1  0  0  0  0
 44 47  1  0  0  0  0
 44108  1  6  0  0  0
 45 46  2  0  0  0  0
 45 50  1  0  0  0  0
 47 48  1  0  0  0  0
 47 49  1  0  0  0  0
 47109  1  1  0  0  0
 48110  1  0  0  0  0
 49111  1  0  0  0  0
 49112  1  0  0  0  0
 49113  1  0  0  0  0
 50 51  1  0  0  0  0
 50114  1  0  0  0  0
 51 52  1  0  0  0  0
 51 54  1  0  0  0  0
 51115  1  6  0  0  0
 52 53  2  0  0  0  0
 52 61  1  0  0  0  0
 54 55  1  0  0  0  0
 54116  1  0  0  0  0
 54117  1  0  0  0  0
 55 56  1  0  0  0  0
 55118  1  0  0  0  0
 55119  1  0  0  0  0
 56 57  1  0  0  0  0
 56120  1  0  0  0  0
 56121  1  0  0  0  0
 57 58  1  0  0  0  0
 57122  1  0  0  0  0
 58 59  1  0  0  0  0
 58 60  1  0  0  0  0
 59123  1  0  0  0  0
 59124  1  0  0  0  0
 60125  1  0  0  0  0
 60126  1  0  0  0  0
 61 62  1  0  0  0  0
 61127  1  0  0  0  0
 62 63  1  0  0  0  0
 62 65  1  0  0  0  0
 62128  1  1  0  0  0
 63 64  1  0  0  0  0
 63 69  2  0  0  0  0
 65 66  1  0  0  0  0
 65129  1  0  0  0  0
 65130  1  0  0  0  0
 66 67  1  0  0  0  0
 66 68  1  0  0  0  0
 66131  1  0  0  0  0
 67132  1  0  0  0  0
 67133  1  0  0  0  0
 67134  1  0  0  0  0
 68135  1  0  0  0  0
 68136  1  0  0  0  0
 68137  1  0  0  0  0
M  CHG  3   1   1  41  -1  64  -1
M  END
