4k78_ligand
 OpenBabel08222323353D

172173  0  0  1  0  0  0  0  0999 V2000
   32.1410   32.3620   35.3680 N   0  3  0  0  0  0  0  0  0  0  0  0
   31.2060   31.7420   34.4340 C   0  0  2  0  0  0  0  0  0  0  0  0
   31.7400   30.4050   33.9330 C   0  0  0  0  0  0  0  0  0  0  0  0
   32.8520   30.3270   33.4250 O   0  0  0  0  0  0  0  0  0  0  0  0
   30.9210   32.6740   33.2660 C   0  0  0  0  0  0  0  0  0  0  0  0
   30.9400   29.3540   34.0730 N   0  0  0  0  0  0  0  0  0  0  0  0
   31.3890   28.0120   33.7110 C   0  0  2  0  0  0  0  0  0  0  0  0
   30.9600   27.5960   32.3100 C   0  0  0  0  0  0  0  0  0  0  0  0
   29.8520   27.8960   31.8760 O   0  0  0  0  0  0  0  0  0  0  0  0
   30.8900   26.9990   34.7430 C   0  0  0  0  0  0  0  0  0  0  0  0
   31.4670   27.2430   36.1160 C   0  0  0  0  0  0  0  0  0  0  0  0
   32.6290   27.6170   36.2530 O   0  0  0  0  0  0  0  0  0  0  0  0
   30.6530   27.0460   37.1420 N   0  0  0  0  0  0  0  0  0  0  0  0
   31.8450   26.9080   31.6020 N   0  0  0  0  0  0  0  0  0  0  0  0
   31.5430   26.4770   30.2450 C   0  0  2  0  0  0  0  0  0  0  0  0
   30.6460   25.2400   30.2600 C   0  0  0  0  0  0  0  0  0  0  0  0
   29.9280   24.9730   29.2900 O   0  0  0  0  0  0  0  0  0  0  0  0
   32.8200   26.1660   29.4640 C   0  0  0  0  0  0  0  0  0  0  0  0
   33.3550   24.9220   29.8640 O   0  0  0  0  0  0  0  0  0  0  0  0
   30.6810   24.4650   31.3370 N   0  0  0  0  0  0  0  0  0  0  0  0
   30.0040   23.1900   31.4010 C   0  0  2  0  0  0  0  0  0  0  0  0
   28.9120   23.1410   32.4870 C   0  0  0  0  0  0  0  0  0  0  0  0
   29.2250   23.2680   33.6420 O   0  0  0  0  0  0  0  0  0  0  0  0
   30.9980   22.1090   31.7780 C   0  0  0  0  0  0  0  0  0  0  0  0
   31.3280   21.0980   30.7420 C   0  0  0  0  0  0  0  0  0  0  0  0
   31.5530   19.7520   31.4450 C   0  0  0  0  0  0  0  0  0  0  0  0
   32.0700   18.7740   30.5240 N   0  0  0  0  0  0  0  0  0  0  0  0
   33.1500   18.9920   29.7940 C   0  0  0  0  0  3  0  0  0  0  0  0
   33.8010   20.1310   29.9410 N   0  0  0  0  0  0  0  0  0  0  0  0
   33.5860   18.0830   28.9470 N   0  0  0  0  0  0  0  0  0  0  0  0
   27.6710   22.8610   32.1110 N   0  0  0  0  0  0  0  0  0  0  0  0
   26.5570   22.8000   33.0530 C   0  0  2  0  0  0  0  0  0  0  0  0
   25.9090   21.4250   33.0510 C   0  0  0  0  0  0  0  0  0  0  0  0
   25.6910   20.8350   31.9910 O   0  0  0  0  0  0  0  0  0  0  0  0
   25.4680   23.7950   32.6450 C   0  0  0  0  0  0  0  0  0  0  0  0
   25.8860   25.2220   32.5170 C   0  0  0  0  0  0  0  0  0  0  0  0
   27.1210   25.7530   32.7640 C   0  0  0  0  0  0  0  0  0  0  0  0
   25.0520   26.3130   32.1150 C   0  0  0  0  0  0  0  0  0  0  0  0
   27.1030   27.1110   32.5390 N   0  0  0  0  0  0  0  0  0  0  0  0
   25.8420   27.4780   32.1340 C   0  0  0  0  0  0  0  0  0  0  0  0
   23.7060   26.4160   31.7360 C   0  0  0  0  0  0  0  0  0  0  0  0
   25.3400   28.7280   31.7930 C   0  0  0  0  0  0  0  0  0  0  0  0
   23.2060   27.6600   31.3960 C   0  0  0  0  0  0  0  0  0  0  0  0
   24.0210   28.8010   31.4280 C   0  0  0  0  0  0  0  0  0  0  0  0
   25.5680   20.9460   34.2420 N   0  0  0  0  0  0  0  0  0  0  0  0
   24.8000   19.7230   34.3950 C   0  0  2  0  0  0  0  0  0  0  0  0
   23.4760   19.8670   33.6420 C   0  0  0  0  0  0  0  0  0  0  0  0
   22.9560   20.9740   33.5170 O   0  0  0  0  0  0  0  0  0  0  0  0
   24.5250   19.4780   35.8820 C   0  0  0  0  0  0  0  0  0  0  0  0
   25.7710   19.4710   36.7720 C   0  0  0  0  0  0  0  0  0  0  0  0
   25.8430   20.6600   37.7160 C   0  0  0  0  0  0  0  0  0  0  0  0
   25.7820   21.8150   37.2940 O   0  0  0  0  0  0  0  0  0  0  0  0
   25.9700   20.3790   39.0060 N   0  0  0  0  0  0  0  0  0  0  0  0
   22.9380   18.7620   33.1360 N   0  0  0  0  0  0  0  0  0  0  0  0
   21.6070   18.7830   32.5570 C   0  0  2  0  0  0  0  0  0  0  0  0
   20.8820   17.5410   33.0480 C   0  0  0  0  0  0  0  0  0  0  0  0
   21.3400   16.4220   32.8180 O   0  0  0  0  0  0  0  0  0  0  0  0
   21.7040   18.8000   31.0380 C   0  0  0  0  0  0  0  0  0  0  0  0
   20.3550   18.8820   30.3770 C   0  0  0  0  0  0  0  0  0  0  0  0
   19.7860   19.9910   30.3500 O   0  5  0  0  0  0  0  0  0  0  0  0
   19.8700   17.8400   29.8910 O   0  0  0  0  0  0  0  0  0  0  0  0
   19.7680   17.7290   33.7500 N   0  0  0  0  0  0  0  0  0  0  0  0
   19.1190   16.6140   34.4330 C   0  0  2  0  0  0  0  0  0  0  0  0
   17.6710   16.4900   34.0180 C   0  0  0  0  0  0  0  0  0  0  0  0
   16.9330   17.4680   34.0450 O   0  0  0  0  0  0  0  0  0  0  0  0
   19.2010   16.7810   35.9610 C   0  0  2  0  0  0  0  0  0  0  0  0
   20.5740   16.8680   36.3550 O   0  0  0  0  0  0  0  0  0  0  0  0
   18.5390   15.6090   36.6800 C   0  0  0  0  0  0  0  0  0  0  0  0
   17.2790   15.2890   33.6070 N   0  0  0  0  0  0  0  0  0  0  0  0
   15.8910   15.0070   33.2860 C   0  0  2  0  0  0  0  0  0  0  0  0
   15.0860   14.6890   34.5430 C   0  0  0  0  0  0  0  0  0  0  0  0
   15.5290   13.9130   35.4030 O   0  0  0  0  0  0  0  0  0  0  0  0
   15.8050   13.8450   32.2950 C   0  0  0  0  0  0  0  0  0  0  0  0
   14.4130   13.5250   31.8410 C   0  0  0  0  0  0  0  0  0  0  0  0
   14.4740   12.5850   30.6600 C   0  0  0  0  0  0  0  0  0  0  0  0
   13.1550   12.1600   30.2070 N   0  0  0  0  0  0  0  0  0  0  0  0
   12.9140   11.6290   29.0120 C   0  0  0  0  0  3  0  0  0  0  0  0
   13.9010   11.4690   28.1480 N   0  0  0  0  0  0  0  0  0  0  0  0
   11.6870   11.2630   28.6790 N   0  0  0  0  0  0  0  0  0  0  0  0
   13.9040   15.2900   34.6490 N   0  0  0  0  0  0  0  0  0  0  0  0
   13.0470   15.1250   35.8220 C   0  0  2  0  0  0  0  0  0  0  0  0
   11.6610   14.6380   35.4390 C   0  0  0  0  0  0  0  0  0  0  0  0
   11.2820   14.6410   34.2580 O   0  5  0  0  0  0  0  0  0  0  0  0
   12.9070   16.4530   36.5770 C   0  0  0  0  0  0  0  0  0  0  0  0
   14.2000   17.1860   36.9240 C   0  0  0  0  0  0  0  0  0  0  0  0
   13.9260   18.6400   37.3140 C   0  0  0  0  0  0  0  0  0  0  0  0
   14.9160   16.4490   38.0300 C   0  0  0  0  0  0  0  0  0  0  0  0
   10.8940   14.2520   36.3350 O   0  0  0  0  0  0  0  0  0  0  0  0
   31.7659   33.2426   35.6841 H   0  0  0  0  0  0  0  0  0  0  0  0
   33.0230   32.5190   34.9060 H   0  0  0  0  0  0  0  0  0  0  0  0
   32.2797   31.7526   36.1589 H   0  0  0  0  0  0  0  0  0  0  0  0
   30.2612   31.5568   34.9661 H   0  0  0  0  0  0  0  0  0  0  0  0
   30.2157   32.1900   32.5744 H   0  0  0  0  0  0  0  0  0  0  0  0
   31.8593   32.8962   32.7368 H   0  0  0  0  0  0  0  0  0  0  0  0
   30.4817   33.6097   33.6422 H   0  0  0  0  0  0  0  0  0  0  0  0
   30.0157   29.4835   34.4319 H   0  0  0  0  0  0  0  0  0  0  0  0
   32.4887   28.0115   33.7344 H   0  0  0  0  0  0  0  0  0  0  0  0
   31.1768   25.9893   34.4139 H   0  0  0  0  0  0  0  0  0  0  0  0
   29.7938   27.0675   34.8035 H   0  0  0  0  0  0  0  0  0  0  0  0
   30.9806   27.1922   38.0754 H   0  0  0  0  0  0  0  0  0  0  0  0
   29.7108   26.7511   36.9833 H   0  0  0  0  0  0  0  0  0  0  0  0
   32.7316   26.6822   32.0056 H   0  0  0  0  0  0  0  0  0  0  0  0
   31.0102   27.2926   29.7342 H   0  0  0  0  0  0  0  0  0  0  0  0
   33.5614   26.9563   29.6533 H   0  0  0  0  0  0  0  0  0  0  0  0
   32.5875   26.1311   28.3894 H   0  0  0  0  0  0  0  0  0  0  0  0
   34.1466   24.7452   29.3694 H   0  0  0  0  0  0  0  0  0  0  0  0
   31.1963   24.7758   32.1357 H   0  0  0  0  0  0  0  0  0  0  0  0
   29.5583   22.9745   30.4187 H   0  0  0  0  0  0  0  0  0  0  0  0
   30.5886   21.5715   32.6460 H   0  0  0  0  0  0  0  0  0  0  0  0
   31.9359   22.6074   32.0642 H   0  0  0  0  0  0  0  0  0  0  0  0
   32.2415   21.3966   30.2070 H   0  0  0  0  0  0  0  0  0  0  0  0
   30.4963   21.0111   30.0273 H   0  0  0  0  0  0  0  0  0  0  0  0
   30.5961   19.3934   31.8521 H   0  0  0  0  0  0  0  0  0  0  0  0
   32.2721   19.8897   32.2659 H   0  0  0  0  0  0  0  0  0  0  0  0
   31.5809   17.8723   30.4306 H   0  0  0  0  0  0  0  0  0  0  0  0
   34.6447   20.3180   29.3805 H   0  0  0  0  0  0  0  0  0  0  0  0
   33.4653   20.8326   30.6162 H   0  0  0  0  0  0  0  0  0  0  0  0
   33.0749   17.1957   28.8355 H   0  0  0  0  0  0  0  0  0  0  0  0
   34.4382   18.2592   28.3959 H   0  0  0  0  0  0  0  0  0  0  0  0
   27.4912   22.6846   31.1433 H   0  0  0  0  0  0  0  0  0  0  0  0
   26.9253   23.0371   34.0620 H   0  0  0  0  0  0  0  0  0  0  0  0
   24.6704   23.7466   33.4010 H   0  0  0  0  0  0  0  0  0  0  0  0
   25.0699   23.4745   31.6710 H   0  0  0  0  0  0  0  0  0  0  0  0
   27.9911   25.1854   33.0907 H   0  0  0  0  0  0  0  0  0  0  0  0
   27.9039   27.7481   32.6552 H   0  0  0  0  0  0  0  0  0  0  0  0
   23.0701   25.5385   31.7100 H   0  0  0  0  0  0  0  0  0  0  0  0
   25.9676   29.6116   31.8148 H   0  0  0  0  0  0  0  0  0  0  0  0
   22.1675   27.7546   31.1000 H   0  0  0  0  0  0  0  0  0  0  0  0
   23.5982   29.7620   31.1580 H   0  0  0  0  0  0  0  0  0  0  0  0
   25.8498   21.4448   35.0616 H   0  0  0  0  0  0  0  0  0  0  0  0
   25.3679   18.8761   33.9825 H   0  0  0  0  0  0  0  0  0  0  0  0
   24.0275   18.5020   35.9819 H   0  0  0  0  0  0  0  0  0  0  0  0
   23.8524   20.2709   36.2410 H   0  0  0  0  0  0  0  0  0  0  0  0
   26.6613   19.4838   36.1262 H   0  0  0  0  0  0  0  0  0  0  0  0
   25.7663   18.5490   37.3718 H   0  0  0  0  0  0  0  0  0  0  0  0
   26.0227   21.1193   39.6762 H   0  0  0  0  0  0  0  0  0  0  0  0
   26.0131   19.4268   39.3084 H   0  0  0  0  0  0  0  0  0  0  0  0
   23.4558   17.9067   33.1544 H   0  0  0  0  0  0  0  0  0  0  0  0
   21.0679   19.6812   32.8925 H   0  0  0  0  0  0  0  0  0  0  0  0
   22.2044   17.8785   30.7058 H   0  0  0  0  0  0  0  0  0  0  0  0
   22.3006   19.6720   30.7320 H   0  0  0  0  0  0  0  0  0  0  0  0
   19.3705   18.6446   33.8106 H   0  0  0  0  0  0  0  0  0  0  0  0
   19.6429   15.6880   34.1538 H   0  0  0  0  0  0  0  0  0  0  0  0
   18.6838   17.7093   36.2452 H   0  0  0  0  0  0  0  0  0  0  0  0
   20.9772   17.6164   35.9309 H   0  0  0  0  0  0  0  0  0  0  0  0
   18.6135   15.7567   37.7675 H   0  0  0  0  0  0  0  0  0  0  0  0
   19.0467   14.6738   36.4014 H   0  0  0  0  0  0  0  0  0  0  0  0
   17.4796   15.5517   36.3895 H   0  0  0  0  0  0  0  0  0  0  0  0
   17.9575   14.5600   33.5163 H   0  0  0  0  0  0  0  0  0  0  0  0
   15.4567   15.9010   32.8147 H   0  0  0  0  0  0  0  0  0  0  0  0
   16.2250   12.9495   32.7764 H   0  0  0  0  0  0  0  0  0  0  0  0
   16.4058   14.1015   31.4100 H   0  0  0  0  0  0  0  0  0  0  0  0
   13.9010   14.4526   31.5456 H   0  0  0  0  0  0  0  0  0  0  0  0
   13.8599   13.0465   32.6626 H   0  0  0  0  0  0  0  0  0  0  0  0
   15.0500   11.6938   30.9496 H   0  0  0  0  0  0  0  0  0  0  0  0
   14.9827   13.0965   29.8296 H   0  0  0  0  0  0  0  0  0  0  0  0
   12.3610   12.2784   30.8523 H   0  0  0  0  0  0  0  0  0  0  0  0
   13.7137   11.0576   27.2225 H   0  0  0  0  0  0  0  0  0  0  0  0
   14.8577   11.7557   28.4001 H   0  0  0  0  0  0  0  0  0  0  0  0
   10.9136   11.3852   29.3482 H   0  0  0  0  0  0  0  0  0  0  0  0
   11.5051   10.8558   27.7505 H   0  0  0  0  0  0  0  0  0  0  0  0
   13.5908   15.8748   33.9007 H   0  0  0  0  0  0  0  0  0  0  0  0
   13.5108   14.3825   36.4880 H   0  0  0  0  0  0  0  0  0  0  0  0
   12.3784   16.2462   37.5192 H   0  0  0  0  0  0  0  0  0  0  0  0
   12.2988   17.1268   35.9556 H   0  0  0  0  0  0  0  0  0  0  0  0
   14.8465   17.1884   36.0341 H   0  0  0  0  0  0  0  0  0  0  0  0
   14.8754   19.1394   37.5576 H   0  0  0  0  0  0  0  0  0  0  0  0
   13.2627   18.6656   38.1911 H   0  0  0  0  0  0  0  0  0  0  0  0
   13.4431   19.1603   36.4737 H   0  0  0  0  0  0  0  0  0  0  0  0
   15.0980   15.4094   37.7199 H   0  0  0  0  0  0  0  0  0  0  0  0
   14.2952   16.4573   38.9380 H   0  0  0  0  0  0  0  0  0  0  0  0
   15.8765   16.9431   38.2380 H   0  0  0  0  0  0  0  0  0  0  0  0
  1  2  1  0  0  0  0
  1 89  1  0  0  0  0
  1 90  1  0  0  0  0
  1 91  1  0  0  0  0
  2  3  1  0  0  0  0
  2  5  1  0  0  0  0
  2 92  1  1  0  0  0
  3  4  2  0  0  0  0
  3  6  1  0  0  0  0
  5 93  1  0  0  0  0
  5 94  1  0  0  0  0
  5 95  1  0  0  0  0
  6  7  1  0  0  0  0
  6 96  1  0  0  0  0
  7  8  1  0  0  0  0
  7 10  1  0  0  0  0
  7 97  1  1  0  0  0
  8  9  2  0  0  0  0
  8 14  1  0  0  0  0
 10 11  1  0  0  0  0
 10 98  1  0  0  0  0
 10 99  1  0  0  0  0
 11 12  2  0  0  0  0
 11 13  1  0  0  0  0
 13100  1  0  0  0  0
 13101  1  0  0  0  0
 14 15  1  0  0  0  0
 14102  1  0  0  0  0
 15 16  1  0  0  0  0
 15 18  1  0  0  0  0
 15103  1  6  0  0  0
 16 17  2  0  0  0  0
 16 20  1  0  0  0  0
 18 19  1  0  0  0  0
 18104  1  0  0  0  0
 18105  1  0  0  0  0
 19106  1  0  0  0  0
 20 21  1  0  0  0  0
 20107  1  0  0  0  0
 21 22  1  0  0  0  0
 21 24  1  0  0  0  0
 21108  1  6  0  0  0
 22 23  2  0  0  0  0
 22 31  1  0  0  0  0
 24 25  1  0  0  0  0
 24109  1  0  0  0  0
 24110  1  0  0  0  0
 25 26  1  0  0  0  0
 25111  1  0  0  0  0
 25112  1  0  0  0  0
 26 27  1  0  0  0  0
 26113  1  0  0  0  0
 26114  1  0  0  0  0
 27 28  1  0  0  0  0
 27115  1  0  0  0  0
 28 29  1  0  0  0  0
 28 30  1  0  0  0  0
 29116  1  0  0  0  0
 29117  1  0  0  0  0
 30118  1  0  0  0  0
 30119  1  0  0  0  0
 31 32  1  0  0  0  0
 31120  1  0  0  0  0
 32 33  1  0  0  0  0
 32 35  1  0  0  0  0
 32121  1  1  0  0  0
 33 34  2  0  0  0  0
 33 45  1  0  0  0  0
 35 36  1  0  0  0  0
 35122  1  0  0  0  0
 35123  1  0  0  0  0
 36 37  2  0  0  0  0
 36 38  1  0  0  0  0
 37 39  1  0  0  0  0
 37124  1  0  0  0  0
 38 40  2  0  0  0  0
 38 41  1  0  0  0  0
 39 40  1  0  0  0  0
 39125  1  0  0  0  0
 40 42  1  0  0  0  0
 41 43  2  0  0  0  0
 41126  1  0  0  0  0
 42 44  2  0  0  0  0
 42127  1  0  0  0  0
 43 44  1  0  0  0  0
 43128  1  0  0  0  0
 44129  1  0  0  0  0
 45 46  1  0  0  0  0
 45130  1  0  0  0  0
 46 47  1  0  0  0  0
 46 49  1  0  0  0  0
 46131  1  6  0  0  0
 47 48  2  0  0  0  0
 47 54  1  0  0  0  0
 49 50  1  0  0  0  0
 49132  1  0  0  0  0
 49133  1  0  0  0  0
 50 51  1  0  0  0  0
 50134  1  0  0  0  0
 50135  1  0  0  0  0
 51 52  2  0  0  0  0
 51 53  1  0  0  0  0
 53136  1  0  0  0  0
 53137  1  0  0  0  0
 54 55  1  0  0  0  0
 54138  1  0  0  0  0
 55 56  1  0  0  0  0
 55 58  1  0  0  0  0
 55139  1  1  0  0  0
 56 57  2  0  0  0  0
 56 62  1  0  0  0  0
 58 59  1  0  0  0  0
 58140  1  0  0  0  0
 58141  1  0  0  0  0
 59 60  1  0  0  0  0
 59 61  2  0  0  0  0
 62 63  1  0  0  0  0
 62142  1  0  0  0  0
 63 64  1  0  0  0  0
 63 66  1  0  0  0  0
 63143  1  6  0  0  0
 64 65  2  0  0  0  0
 64 69  1  0  0  0  0
 66 67  1  0  0  0  0
 66 68  1  0  0  0  0
 66144  1  1  0  0  0
 67145  1  0  0  0  0
 68146  1  0  0  0  0
 68147  1  0  0  0  0
 68148  1  0  0  0  0
 69 70  1  0  0  0  0
 69149  1  0  0  0  0
 70 71  1  0  0  0  0
 70 73  1  0  0  0  0
 70150  1  6  0  0  0
 71 72  2  0  0  0  0
 71 80  1  0  0  0  0
 73 74  1  0  0  0  0
 73151  1  0  0  0  0
 73152  1  0  0  0  0
 74 75  1  0  0  0  0
 74153  1  0  0  0  0
 74154  1  0  0  0  0
 75 76  1  0  0  0  0
 75155  1  0  0  0  0
 75156  1  0  0  0  0
 76 77  1  0  0  0  0
 76157  1  0  0  0  0
 77 78  1  0  0  0  0
 77 79  1  0  0  0  0
 78158  1  0  0  0  0
 78159  1  0  0  0  0
 79160  1  0  0  0  0
 79161  1  0  0  0  0
 80 81  1  0  0  0  0
 80162  1  0  0  0  0
 81 82  1  0  0  0  0
 81 84  1  0  0  0  0
 81163  1  1  0  0  0
 82 83  1  0  0  0  0
 82 88  2  0  0  0  0
 84 85  1  0  0  0  0
 84164  1  0  0  0  0
 84165  1  0  0  0  0
 85 86  1  0  0  0  0
 85 87  1  0  0  0  0
 85166  1  0  0  0  0
 86167  1  0  0  0  0
 86168  1  0  0  0  0
 86169  1  0  0  0  0
 87170  1  0  0  0  0
 87171  1  0  0  0  0
 87172  1  0  0  0  0
M  CHG  3   1   1  60  -1  83  -1
M  END
