4k8a_ligand
 OpenBabel08222323353D

 16 17  0  0  0  0  0  0  0  0999 V2000
  -11.4370  -26.7470   43.8250 C   0  0  0  0  0  0  0  0  0  0  0  0
  -12.9930  -26.9980   45.2820 N   0  0  0  0  0  0  0  0  0  0  0  0
  -11.7950  -26.5830   45.0860 N   0  0  0  0  0  0  0  0  0  0  0  0
  -13.4940  -27.4380   44.1820 N   0  0  0  0  0  0  0  0  0  0  0  0
  -12.5080  -27.2850   43.1890 N   0  0  0  0  0  0  0  0  0  0  0  0
  -10.1370  -26.3790   43.2080 C   0  0  0  0  0  0  0  0  0  0  0  0
   -8.0830  -25.1820   43.3170 N   0  0  0  0  0  0  0  0  0  0  0  0
   -9.7950  -26.8350   41.9220 C   0  0  0  0  0  0  0  0  0  0  0  0
   -9.2320  -25.5360   43.8760 C   0  0  0  0  0  0  0  0  0  0  0  0
   -8.5750  -26.4380   41.3780 C   0  0  0  0  0  0  0  0  0  0  0  0
   -8.0840  -26.9980   39.6400 Br  0  0  0  0  0  0  0  0  0  0  0  0
   -7.7380  -25.5930   42.1050 C   0  0  0  0  0  0  0  0  0  0  0  0
  -12.5836  -27.5296   42.1913 H   0  0  0  0  0  0  0  0  0  0  0  0
  -10.4655  -27.4808   41.3666 H   0  0  0  0  0  0  0  0  0  0  0  0
   -9.4779  -25.1688   44.8658 H   0  0  0  0  0  0  0  0  0  0  0  0
   -6.7969  -25.2692   41.6755 H   0  0  0  0  0  0  0  0  0  0  0  0
  1  3  2  0  0  0  0
  1  5  1  0  0  0  0
  1  6  1  0  0  0  0
  2  4  2  0  0  0  0
  3  2  1  0  0  0  0
  4  5  1  0  0  0  0
  5 13  1  0  0  0  0
  6  8  2  0  0  0  0
  6  9  1  0  0  0  0
  7 12  1  0  0  0  0
  8 10  1  0  0  0  0
  8 14  1  0  0  0  0
  9  7  2  0  0  0  0
  9 15  1  0  0  0  0
 10 11  1  0  0  0  0
 10 12  2  0  0  0  0
 12 16  1  0  0  0  0
M  END
