4kbc_ligand
 OpenBabel08222323353D

 32 34  0  0  0  0  0  0  0  0999 V2000
  -25.3380   -0.7920   41.4820 N   0  0  0  0  0  0  0  0  0  0  0  0
  -20.0940    1.4310   42.8570 C   0  0  0  0  0  0  0  0  0  0  0  0
  -19.3070   -1.5430   39.2390 N   0  0  0  0  0  0  0  0  0  0  0  0
  -20.2810   -0.9310   39.9790 C   0  0  0  0  0  0  0  0  0  0  0  0
  -19.9970    0.2590   40.7540 C   0  0  0  0  0  0  0  0  0  0  0  0
  -21.2290   -2.7700   39.0670 C   0  0  0  0  0  0  0  0  0  0  0  0
  -24.8960   -2.0650   41.3340 C   0  0  0  0  0  0  0  0  0  0  0  0
  -21.5020   -1.6710   39.8870 C   0  0  0  0  0  0  0  0  0  0  0  0
  -19.2440    1.2880   40.1910 C   0  0  0  0  0  0  0  0  0  0  0  0
  -18.9100    2.4000   40.9530 C   0  0  0  0  0  0  0  0  0  0  0  0
  -19.3280    2.4530   42.2860 C   0  0  0  0  0  0  0  0  0  0  0  0
  -20.4310    0.3360   42.0760 C   0  0  0  0  0  0  0  0  0  0  0  0
  -19.9000   -2.6410   38.6960 N   0  0  0  0  0  0  0  0  0  0  0  0
  -22.7800   -1.3620   40.4700 C   0  0  0  0  0  0  0  0  0  0  0  0
  -23.1950   -0.0420   40.6300 C   0  0  0  0  0  0  0  0  0  0  0  0
  -24.4750    0.1910   41.1390 C   0  0  0  0  0  0  0  0  0  0  0  0
  -23.6330   -2.3980   40.8460 C   0  0  0  0  0  0  0  0  0  0  0  0
  -25.8550   -3.1790   41.6960 C   0  0  0  0  0  0  0  0  0  0  0  0
  -26.1960   -3.8890   40.5440 O   0  0  0  0  0  0  0  0  0  0  0  0
  -18.9950    3.4990   43.0320 F   0  0  0  0  0  0  0  0  0  0  0  0
  -20.4177    1.4939   43.8896 H   0  0  0  0  0  0  0  0  0  0  0  0
  -21.9178   -3.5629   38.7795 H   0  0  0  0  0  0  0  0  0  0  0  0
  -18.9193    1.2203   39.1590 H   0  0  0  0  0  0  0  0  0  0  0  0
  -18.3357    3.2121   40.5220 H   0  0  0  0  0  0  0  0  0  0  0  0
  -21.0334   -0.4620   42.4947 H   0  0  0  0  0  0  0  0  0  0  0  0
  -19.4136   -3.3045   38.0762 H   0  0  0  0  0  0  0  0  0  0  0  0
  -22.5423    0.7824   40.3666 H   0  0  0  0  0  0  0  0  0  0  0  0
  -24.7948    1.2189   41.2663 H   0  0  0  0  0  0  0  0  0  0  0  0
  -23.3233   -3.4334   40.7615 H   0  0  0  0  0  0  0  0  0  0  0  0
  -26.7630   -2.7503   42.1452 H   0  0  0  0  0  0  0  0  0  0  0  0
  -25.3746   -3.8573   42.4165 H   0  0  0  0  0  0  0  0  0  0  0  0
  -26.6105   -3.3020   39.9227 H   0  0  0  0  0  0  0  0  0  0  0  0
  1 16  1  0  0  0  0
  2 11  2  0  0  0  0
  2 21  1  0  0  0  0
  4  3  2  0  0  0  0
  4  5  1  0  0  0  0
  5  9  1  0  0  0  0
  5 12  2  0  0  0  0
  6 13  1  0  0  0  0
  6 22  1  0  0  0  0
  7  1  2  0  0  0  0
  7 18  1  0  0  0  0
  8  4  1  0  0  0  0
  8  6  2  0  0  0  0
  9 10  2  0  0  0  0
  9 23  1  0  0  0  0
 10 11  1  0  0  0  0
 10 24  1  0  0  0  0
 11 20  1  0  0  0  0
 12  2  1  0  0  0  0
 12 25  1  0  0  0  0
 13  3  1  0  0  0  0
 13 26  1  0  0  0  0
 14  8  1  0  0  0  0
 14 15  1  0  0  0  0
 14 17  2  0  0  0  0
 15 16  2  0  0  0  0
 15 27  1  0  0  0  0
 16 28  1  0  0  0  0
 17  7  1  0  0  0  0
 17 29  1  0  0  0  0
 18 19  1  0  0  0  0
 18 30  1  0  0  0  0
 18 31  1  0  0  0  0
 19 32  1  0  0  0  0
M  END
