4kc2_ligand
 OpenBabel08222323353D

 45 47  0  0  1  0  0  0  0  0999 V2000
   17.9810   23.6120   11.2450 O   0  0  0  0  0  0  0  0  0  0  0  0
   17.4920   23.5780   10.0860 C   0  0  0  0  0  0  0  0  0  0  0  0
   18.1390   24.1820    9.0760 N   0  0  0  0  0  0  0  0  0  0  0  0
   17.6510   24.1570    7.8260 C   0  0  0  0  0  0  0  0  0  0  0  0
   18.2810   24.7260    6.9120 O   0  0  0  0  0  0  0  0  0  0  0  0
   16.2900   22.9060    9.8430 C   0  0  0  0  0  0  0  0  0  0  0  0
   15.7750   22.8790    8.5430 C   0  0  0  0  0  0  0  0  0  0  0  0
   16.4350   23.4880    7.5410 N   0  0  0  0  0  0  0  0  0  0  0  0
   15.9160   23.4750    6.1610 C   0  0  2  0  0  0  0  0  0  0  0  0
   14.6010   22.9100    6.1140 O   0  0  0  0  0  0  0  0  0  0  0  0
   16.7950   22.5830    5.2920 C   0  0  2  0  0  0  0  0  0  0  0  0
   16.8410   23.0820    3.9440 O   0  0  0  0  0  0  0  0  0  0  0  0
   16.0510   21.2690    5.3080 C   0  0  2  0  0  0  0  0  0  0  0  0
   16.3730   20.4590    4.1750 O   0  0  0  0  0  0  0  0  0  0  0  0
   14.5990   21.7310    5.3050 C   0  0  1  0  0  0  0  0  0  0  0  0
   13.5610   20.7300    5.8190 C   0  0  0  0  0  0  0  0  0  0  0  0
   13.9870   20.0050    7.0040 N   0  0  0  0  0  0  0  0  0  0  0  0
   14.5410   18.7950    6.9210 C   0  0  0  0  0  0  0  0  0  0  0  0
   14.9740   18.3660    5.8580 O   0  0  0  0  0  0  0  0  0  0  0  0
   14.6620   17.9240    8.1420 C   0  0  0  0  0  0  0  0  0  0  0  0
   14.1020   18.3020    9.3660 C   0  0  0  0  0  0  0  0  0  0  0  0
   14.2420   17.4560   10.4700 C   0  0  0  0  0  0  0  0  0  0  0  0
   14.9390   16.2550   10.3330 C   0  0  0  0  0  0  0  0  0  0  0  0
   15.4790   15.9100    9.0930 C   0  0  0  0  0  0  0  0  0  0  0  0
   15.3350   16.7500    8.0370 N   0  0  0  0  0  0  0  0  0  0  0  0
   16.2470   14.6130    8.9180 C   0  0  0  0  0  0  0  0  0  0  0  0
   16.3620   14.3010    7.5280 O   0  0  0  0  0  0  0  0  0  0  0  0
   18.9990   24.6585    9.2584 H   0  0  0  0  0  0  0  0  0  0  0  0
   15.7616   22.4099   10.6558 H   0  0  0  0  0  0  0  0  0  0  0  0
   14.8372   22.3636    8.3411 H   0  0  0  0  0  0  0  0  0  0  0  0
   15.9014   24.5012    5.7652 H   0  0  0  0  0  0  0  0  0  0  0  0
   17.8112   22.4874    5.7022 H   0  0  0  0  0  0  0  0  0  0  0  0
   17.1989   23.9620    3.9453 H   0  0  0  0  0  0  0  0  0  0  0  0
   16.2769   20.7022    6.2233 H   0  0  0  0  0  0  0  0  0  0  0  0
   15.8868   19.6442    4.2212 H   0  0  0  0  0  0  0  0  0  0  0  0
   14.3190   21.9902    4.2733 H   0  0  0  0  0  0  0  0  0  0  0  0
   13.3560   20.0013    5.0209 H   0  0  0  0  0  0  0  0  0  0  0  0
   12.6387   21.2788    6.0603 H   0  0  0  0  0  0  0  0  0  0  0  0
   13.8617   20.4236    7.9035 H   0  0  0  0  0  0  0  0  0  0  0  0
   13.5658   19.2396    9.4578 H   0  0  0  0  0  0  0  0  0  0  0  0
   13.8119   17.7312   11.4262 H   0  0  0  0  0  0  0  0  0  0  0  0
   15.0603   15.5944   11.1838 H   0  0  0  0  0  0  0  0  0  0  0  0
   15.7125   13.8002    9.4314 H   0  0  0  0  0  0  0  0  0  0  0  0
   17.2519   14.7225    9.3518 H   0  0  0  0  0  0  0  0  0  0  0  0
   16.8243   15.0023    7.0844 H   0  0  0  0  0  0  0  0  0  0  0  0
  1  2  2  0  0  0  0
  2  3  1  0  0  0  0
  2  6  1  0  0  0  0
  3  4  1  0  0  0  0
  3 28  1  0  0  0  0
  4  5  2  0  0  0  0
  4  8  1  0  0  0  0
  6  7  2  0  0  0  0
  6 29  1  0  0  0  0
  7  8  1  0  0  0  0
  7 30  1  0  0  0  0
  8  9  1  0  0  0  0
  9 10  1  0  0  0  0
  9 11  1  0  0  0  0
  9 31  1  6  0  0  0
 10 15  1  0  0  0  0
 11 12  1  0  0  0  0
 11 13  1  0  0  0  0
 11 32  1  1  0  0  0
 12 33  1  0  0  0  0
 13 14  1  0  0  0  0
 13 15  1  0  0  0  0
 13 34  1  1  0  0  0
 14 35  1  0  0  0  0
 15 16  1  0  0  0  0
 15 36  1  6  0  0  0
 16 17  1  0  0  0  0
 16 37  1  0  0  0  0
 16 38  1  0  0  0  0
 17 18  1  0  0  0  0
 17 39  1  0  0  0  0
 18 19  2  0  0  0  0
 18 20  1  0  0  0  0
 20 21  2  0  0  0  0
 20 25  1  0  0  0  0
 21 22  1  0  0  0  0
 21 40  1  0  0  0  0
 22 23  2  0  0  0  0
 22 41  1  0  0  0  0
 23 24  1  0  0  0  0
 23 42  1  0  0  0  0
 24 25  2  0  0  0  0
 24 26  1  0  0  0  0
 26 27  1  0  0  0  0
 26 43  1  0  0  0  0
 26 44  1  0  0  0  0
 27 45  1  0  0  0  0
M  END
