4kcg_ligand
 OpenBabel08222323353D

 62 64  0  0  0  0  0  0  0  0999 V2000
  -38.1030    9.6770    2.8670 C   0  0  0  0  0  0  0  0  0  0  0  0
  -37.5630    8.2960    1.8620 S   0  0  0  0  0  0  0  0  0  0  0  0
  -38.3940    7.0420    2.1690 O   0  0  0  0  0  0  0  0  0  0  0  0
  -36.0740    8.0760    2.2020 O   0  0  0  0  0  0  0  0  0  0  0  0
  -37.7380    8.5840    0.1760 N   0  0  0  0  0  0  0  0  0  0  0  0
  -36.7120    7.8740   -0.6390 C   0  0  0  0  0  0  0  0  0  0  0  0
  -35.9050    8.8500   -1.5350 C   0  0  0  0  0  0  0  0  0  0  0  0
  -36.7830    9.9060   -1.9520 O   0  0  0  0  0  0  0  0  0  0  0  0
  -36.3040   10.8000   -2.8340 C   0  0  0  0  0  0  0  0  0  0  0  0
  -34.9490   11.0830   -2.9360 C   0  0  0  0  0  0  0  0  0  0  0  0
  -37.2560   11.4350   -3.6260 C   0  0  0  0  0  0  0  0  0  0  0  0
  -38.5510   11.0670   -3.4250 O   0  0  0  0  0  0  0  0  0  0  0  0
  -39.4930   11.6540   -4.3440 C   0  0  0  0  0  0  0  0  0  0  0  0
  -36.8540   12.3750   -4.5560 C   0  0  0  0  0  0  0  0  0  0  0  0
  -35.4920   12.6550   -4.6610 C   0  0  0  0  0  0  0  0  0  0  0  0
  -34.5320   12.0110   -3.8740 C   0  0  0  0  0  0  0  0  0  0  0  0
  -33.2290   12.3200   -3.9820 C   0  0  0  0  0  0  0  0  0  0  0  0
  -32.2640   11.9720   -3.1230 N   0  0  0  0  0  0  0  0  0  0  0  0
  -32.5780   13.2320   -5.1530 S   0  0  0  0  0  0  0  0  0  0  0  0
  -31.0510   13.1860   -4.5880 C   0  0  0  0  0  0  0  0  0  0  0  0
  -29.8120   13.8750   -5.2420 C   0  0  0  0  0  0  0  0  0  0  0  0
  -29.9690   15.4050   -5.2940 C   0  0  0  0  0  0  0  0  0  0  0  0
  -29.6140   16.0480   -3.9300 C   0  0  0  0  0  0  0  0  0  0  0  0
  -31.0490   12.4460   -3.4640 C   0  0  0  0  0  0  0  0  0  0  0  0
  -29.7730   12.1500   -2.6430 C   0  0  0  0  0  0  0  0  0  0  0  0
  -28.9190   10.5720   -3.0760 S   0  0  0  0  0  0  0  0  0  0  0  0
  -27.2300   11.0230   -3.4750 C   0  0  0  0  0  0  0  0  0  0  0  0
  -26.2620   10.0970   -3.6080 N   0  0  0  0  0  0  0  0  0  0  0  0
  -26.9230   12.2990   -3.6400 N   0  0  0  0  0  0  0  0  0  0  0  0
  -25.6790   12.6930   -3.9210 C   0  0  0  0  0  0  0  0  0  0  0  0
  -25.4920   14.0010   -4.0780 N   0  0  0  0  0  0  0  0  0  0  0  0
  -24.6320   11.7600   -4.0620 C   0  0  0  0  0  0  0  0  0  0  0  0
  -24.9810   10.4290   -3.8730 C   0  0  0  0  0  0  0  0  0  0  0  0
  -24.0620    9.4840   -3.9640 N   0  0  0  0  0  0  0  0  0  0  0  0
  -39.1649    9.8829    2.6670 H   0  0  0  0  0  0  0  0  0  0  0  0
  -37.5044   10.5662    2.6203 H   0  0  0  0  0  0  0  0  0  0  0  0
  -37.9715    9.4299    3.9308 H   0  0  0  0  0  0  0  0  0  0  0  0
  -38.4513    9.1653   -0.2155 H   0  0  0  0  0  0  0  0  0  0  0  0
  -37.2162    7.1368   -1.2811 H   0  0  0  0  0  0  0  0  0  0  0  0
  -36.0167    7.3560    0.0379 H   0  0  0  0  0  0  0  0  0  0  0  0
  -35.5209    8.3153   -2.4162 H   0  0  0  0  0  0  0  0  0  0  0  0
  -35.0630    9.2693   -0.9647 H   0  0  0  0  0  0  0  0  0  0  0  0
  -34.2311   10.5865   -2.2932 H   0  0  0  0  0  0  0  0  0  0  0  0
  -40.5070   11.3006   -4.1053 H   0  0  0  0  0  0  0  0  0  0  0  0
  -39.2346   11.3596   -5.3719 H   0  0  0  0  0  0  0  0  0  0  0  0
  -39.4566   12.7499   -4.2563 H   0  0  0  0  0  0  0  0  0  0  0  0
  -37.5770   12.8803   -5.1860 H   0  0  0  0  0  0  0  0  0  0  0  0
  -35.1655   13.3989   -5.3787 H   0  0  0  0  0  0  0  0  0  0  0  0
  -29.6930   13.4945   -6.2672 H   0  0  0  0  0  0  0  0  0  0  0  0
  -28.9160   13.6290   -4.6533 H   0  0  0  0  0  0  0  0  0  0  0  0
  -31.0109   15.6510   -5.5469 H   0  0  0  0  0  0  0  0  0  0  0  0
  -29.2988   15.8090   -6.0670 H   0  0  0  0  0  0  0  0  0  0  0  0
  -29.7349   17.1393   -3.9966 H   0  0  0  0  0  0  0  0  0  0  0  0
  -28.5715   15.8097   -3.6725 H   0  0  0  0  0  0  0  0  0  0  0  0
  -30.2835   15.6517   -3.1524 H   0  0  0  0  0  0  0  0  0  0  0  0
  -30.0530   12.1065   -1.5801 H   0  0  0  0  0  0  0  0  0  0  0  0
  -29.0649   12.9765   -2.8021 H   0  0  0  0  0  0  0  0  0  0  0  0
  -24.5533   14.3645   -4.2961 H   0  0  0  0  0  0  0  0  0  0  0  0
  -26.2860   14.6500   -3.9814 H   0  0  0  0  0  0  0  0  0  0  0  0
  -23.6191   12.0620   -4.3026 H   0  0  0  0  0  0  0  0  0  0  0  0
  -23.0837    9.7348   -4.1662 H   0  0  0  0  0  0  0  0  0  0  0  0
  -24.3239    8.4965   -3.8328 H   0  0  0  0  0  0  0  0  0  0  0  0
  1  2  1  0  0  0  0
  1 35  1  0  0  0  0
  1 36  1  0  0  0  0
  1 37  1  0  0  0  0
  2  3  2  0  0  0  0
  2  4  2  0  0  0  0
  2  5  1  0  0  0  0
  5  6  1  0  0  0  0
  5 38  1  0  0  0  0
  6  7  1  0  0  0  0
  6 39  1  0  0  0  0
  6 40  1  0  0  0  0
  7  8  1  0  0  0  0
  7 41  1  0  0  0  0
  7 42  1  0  0  0  0
  8  9  1  0  0  0  0
  9 10  2  0  0  0  0
  9 11  1  0  0  0  0
 10 16  1  0  0  0  0
 10 43  1  0  0  0  0
 11 12  1  0  0  0  0
 11 14  2  0  0  0  0
 12 13  1  0  0  0  0
 13 44  1  0  0  0  0
 13 45  1  0  0  0  0
 13 46  1  0  0  0  0
 14 15  1  0  0  0  0
 14 47  1  0  0  0  0
 15 16  2  0  0  0  0
 15 48  1  0  0  0  0
 16 17  1  0  0  0  0
 17 18  2  0  0  0  0
 17 19  1  0  0  0  0
 18 24  1  0  0  0  0
 19 20  1  0  0  0  0
 20 21  1  0  0  0  0
 20 24  2  0  0  0  0
 21 22  1  0  0  0  0
 21 49  1  0  0  0  0
 21 50  1  0  0  0  0
 22 23  1  0  0  0  0
 22 51  1  0  0  0  0
 22 52  1  0  0  0  0
 23 53  1  0  0  0  0
 23 54  1  0  0  0  0
 23 55  1  0  0  0  0
 24 25  1  0  0  0  0
 25 26  1  0  0  0  0
 25 56  1  0  0  0  0
 25 57  1  0  0  0  0
 26 27  1  0  0  0  0
 27 28  2  0  0  0  0
 27 29  1  0  0  0  0
 28 33  1  0  0  0  0
 29 30  2  0  0  0  0
 30 31  1  0  0  0  0
 30 32  1  0  0  0  0
 31 58  1  0  0  0  0
 31 59  1  0  0  0  0
 32 33  2  0  0  0  0
 32 60  1  0  0  0  0
 33 34  1  0  0  0  0
 34 61  1  0  0  0  0
 34 62  1  0  0  0  0
M  END
