4ke0_ligand
 OpenBabel08222323353D

 79 83  0  0  1  0  0  0  0  0999 V2000
   29.2900    0.1920   10.7140 C   0  0  0  0  0  0  0  0  0  0  0  0
   28.0370   -0.5240   11.2250 C   0  0  0  0  0  0  0  0  0  0  0  0
   27.4650    0.8270   11.7140 C   0  0  0  0  0  0  0  0  0  0  0  0
   28.7860    1.5110   11.3470 C   0  0  0  0  0  0  0  0  0  0  0  0
   29.5470    1.9580   12.6110 C   0  0  0  0  0  0  0  0  0  0  0  0
   28.6310    2.5870   10.4100 O   0  0  0  0  0  0  0  0  0  0  0  0
   29.7640    3.2720   10.0740 C   0  0  0  0  0  0  0  0  0  0  0  0
   29.7600    4.0180    8.8880 C   0  0  0  0  0  0  0  0  0  0  0  0
   30.9010    4.7300    8.5000 C   0  0  0  0  0  0  0  0  0  0  0  0
   32.0380    4.7110    9.2980 C   0  0  0  0  0  0  0  0  0  0  0  0
   33.2990    5.4800    8.8900 C   0  0  0  0  0  0  0  0  0  0  0  0
   34.3420    4.5010    8.3220 C   0  0  0  0  0  0  0  0  0  0  0  0
   32.0370    3.9770   10.4780 C   0  0  0  0  0  0  0  0  0  0  0  0
   30.9050    3.2650   10.8860 C   0  0  0  0  0  0  0  0  0  0  0  0
   30.9570    2.4480   12.2150 C   0  0  1  0  0  0  0  0  0  0  0  0
   31.6080    3.2050   13.3270 N   0  3  0  0  0  0  0  0  0  0  0  0
   31.0010    4.5240   13.6320 C   0  0  0  0  0  0  0  0  0  0  0  0
   32.0320    5.3850   14.3540 C   0  0  1  0  0  0  0  0  0  0  0  0
   33.1630    5.4830   13.5070 O   0  0  0  0  0  0  0  0  0  0  0  0
   31.5340    6.7940   14.7140 C   0  0  2  0  0  0  0  0  0  0  0  0
   32.6370    7.5870   15.4370 C   0  0  0  0  0  0  0  0  0  0  0  0
   32.1340    8.9420   15.9500 C   0  0  0  0  0  0  0  0  0  0  0  0
   31.5870    9.0370   17.2340 C   0  0  0  0  0  0  0  0  0  0  0  0
   32.2190   10.0810   15.1400 C   0  0  0  0  0  0  0  0  0  0  0  0
   31.7450   11.3070   15.6300 C   0  0  0  0  0  0  0  0  0  0  0  0
   31.1910   11.4000   16.9150 C   0  0  0  0  0  0  0  0  0  0  0  0
   31.1170   10.2570   17.7240 C   0  0  0  0  0  0  0  0  0  0  0  0
   30.5060   10.3240   19.1440 C   0  0  0  0  0  0  0  0  0  0  0  0
   28.9510   10.3560   19.1200 C   0  0  0  0  0  0  0  0  0  0  0  0
   28.3030    9.1000   18.4700 C   0  0  0  0  0  0  0  0  0  0  0  0
   27.9740    9.3500   16.9720 C   0  0  0  0  0  0  0  0  0  0  0  0
   27.1720    8.2010   16.3290 C   0  0  0  0  0  0  0  0  0  0  0  0
   27.9830    6.9090   16.1490 C   0  0  0  0  0  0  0  0  0  0  0  0
   29.1190    7.0760   15.1390 C   0  0  0  0  0  0  0  0  0  0  0  0
   28.8850    7.5100   14.0110 O   0  0  0  0  0  0  0  0  0  0  0  0
   30.3310    6.6990   15.5620 N   0  0  0  0  0  0  0  0  0  0  0  0
   29.3753    0.2227    9.6178 H   0  0  0  0  0  0  0  0  0  0  0  0
   30.2300   -0.1834   11.1446 H   0  0  0  0  0  0  0  0  0  0  0  0
   28.2303   -1.2478   12.0305 H   0  0  0  0  0  0  0  0  0  0  0  0
   27.4408   -1.0047   10.4354 H   0  0  0  0  0  0  0  0  0  0  0  0
   27.2278    0.8531   12.7878 H   0  0  0  0  0  0  0  0  0  0  0  0
   26.5983    1.1837   11.1382 H   0  0  0  0  0  0  0  0  0  0  0  0
   29.6351    1.1096   13.3055 H   0  0  0  0  0  0  0  0  0  0  0  0
   28.9980    2.7764   13.0996 H   0  0  0  0  0  0  0  0  0  0  0  0
   28.8705    4.0439    8.2690 H   0  0  0  0  0  0  0  0  0  0  0  0
   30.8974    5.2968    7.5760 H   0  0  0  0  0  0  0  0  0  0  0  0
   33.7174    5.9899    9.7703 H   0  0  0  0  0  0  0  0  0  0  0  0
   33.0409    6.2250    8.1230 H   0  0  0  0  0  0  0  0  0  0  0  0
   35.2455    5.0564    8.0303 H   0  0  0  0  0  0  0  0  0  0  0  0
   33.9248    3.9910    7.4412 H   0  0  0  0  0  0  0  0  0  0  0  0
   34.6012    3.7559    9.0886 H   0  0  0  0  0  0  0  0  0  0  0  0
   32.9295    3.9561   11.0929 H   0  0  0  0  0  0  0  0  0  0  0  0
   31.5742    1.5573   12.0261 H   0  0  0  0  0  0  0  0  0  0  0  0
   32.5732    3.3557   13.0787 H   0  0  0  0  0  0  0  0  0  0  0  0
   31.5596    2.6392   14.1598 H   0  0  0  0  0  0  0  0  0  0  0  0
   30.1196    4.3854   14.2754 H   0  0  0  0  0  0  0  0  0  0  0  0
   30.6982    5.0167   12.6963 H   0  0  0  0  0  0  0  0  0  0  0  0
   32.3177    4.8771   15.2870 H   0  0  0  0  0  0  0  0  0  0  0  0
   33.8276    6.0152   13.9283 H   0  0  0  0  0  0  0  0  0  0  0  0
   31.2715    7.3234   13.7862 H   0  0  0  0  0  0  0  0  0  0  0  0
   33.4669    7.7595   14.7360 H   0  0  0  0  0  0  0  0  0  0  0  0
   32.9961    6.9956   16.2921 H   0  0  0  0  0  0  0  0  0  0  0  0
   31.5272    8.1517   17.8568 H   0  0  0  0  0  0  0  0  0  0  0  0
   32.6461   10.0161   14.1458 H   0  0  0  0  0  0  0  0  0  0  0  0
   31.8077   12.1927   15.0082 H   0  0  0  0  0  0  0  0  0  0  0  0
   30.8217   12.3511   17.2812 H   0  0  0  0  0  0  0  0  0  0  0  0
   30.8703   11.2343   19.6427 H   0  0  0  0  0  0  0  0  0  0  0  0
   30.8323    9.4397   19.7110 H   0  0  0  0  0  0  0  0  0  0  0  0
   28.6318   11.2427   18.5527 H   0  0  0  0  0  0  0  0  0  0  0  0
   28.5904   10.4342   20.1563 H   0  0  0  0  0  0  0  0  0  0  0  0
   27.3735    8.8576   19.0060 H   0  0  0  0  0  0  0  0  0  0  0  0
   29.0023    8.2545   18.5476 H   0  0  0  0  0  0  0  0  0  0  0  0
   28.9187    9.4685   16.4211 H   0  0  0  0  0  0  0  0  0  0  0  0
   27.3847   10.2754   16.8927 H   0  0  0  0  0  0  0  0  0  0  0  0
   26.8221    8.5323   15.3401 H   0  0  0  0  0  0  0  0  0  0  0  0
   26.3055    7.9809   16.9698 H   0  0  0  0  0  0  0  0  0  0  0  0
   27.3094    6.1142   15.7962 H   0  0  0  0  0  0  0  0  0  0  0  0
   28.4120    6.6218   17.1203 H   0  0  0  0  0  0  0  0  0  0  0  0
   30.4250    6.3385   16.4900 H   0  0  0  0  0  0  0  0  0  0  0  0
  1  2  1  0  0  0  0
  1  4  1  0  0  0  0
  1 37  1  0  0  0  0
  1 38  1  0  0  0  0
  2  3  1  0  0  0  0
  2 39  1  0  0  0  0
  2 40  1  0  0  0  0
  3  4  1  0  0  0  0
  3 41  1  0  0  0  0
  3 42  1  0  0  0  0
  4  5  1  0  0  0  0
  4  6  1  0  0  0  0
  5 15  1  0  0  0  0
  5 43  1  0  0  0  0
  5 44  1  0  0  0  0
  6  7  1  0  0  0  0
  7  8  2  0  0  0  0
  7 14  1  0  0  0  0
  8  9  1  0  0  0  0
  8 45  1  0  0  0  0
  9 10  2  0  0  0  0
  9 46  1  0  0  0  0
 10 11  1  0  0  0  0
 10 13  1  0  0  0  0
 11 12  1  0  0  0  0
 11 47  1  0  0  0  0
 11 48  1  0  0  0  0
 12 49  1  0  0  0  0
 12 50  1  0  0  0  0
 12 51  1  0  0  0  0
 13 14  2  0  0  0  0
 13 52  1  0  0  0  0
 14 15  1  0  0  0  0
 15 16  1  0  0  0  0
 15 53  1  6  0  0  0
 16 17  1  0  0  0  0
 16 54  1  0  0  0  0
 16 55  1  0  0  0  0
 17 18  1  0  0  0  0
 17 56  1  0  0  0  0
 17 57  1  0  0  0  0
 18 19  1  0  0  0  0
 18 20  1  0  0  0  0
 18 58  1  1  0  0  0
 19 59  1  0  0  0  0
 20 21  1  0  0  0  0
 20 36  1  0  0  0  0
 20 60  1  6  0  0  0
 21 22  1  0  0  0  0
 21 61  1  0  0  0  0
 21 62  1  0  0  0  0
 22 23  2  0  0  0  0
 22 24  1  0  0  0  0
 23 27  1  0  0  0  0
 23 63  1  0  0  0  0
 24 25  2  0  0  0  0
 24 64  1  0  0  0  0
 25 26  1  0  0  0  0
 25 65  1  0  0  0  0
 26 27  2  0  0  0  0
 26 66  1  0  0  0  0
 27 28  1  0  0  0  0
 28 29  1  0  0  0  0
 28 67  1  0  0  0  0
 28 68  1  0  0  0  0
 29 30  1  0  0  0  0
 29 69  1  0  0  0  0
 29 70  1  0  0  0  0
 30 31  1  0  0  0  0
 30 71  1  0  0  0  0
 30 72  1  0  0  0  0
 31 32  1  0  0  0  0
 31 73  1  0  0  0  0
 31 74  1  0  0  0  0
 32 33  1  0  0  0  0
 32 75  1  0  0  0  0
 32 76  1  0  0  0  0
 33 34  1  0  0  0  0
 33 77  1  0  0  0  0
 33 78  1  0  0  0  0
 34 35  2  0  0  0  0
 34 36  1  0  0  0  0
 36 79  1  0  0  0  0
M  CHG  1  16   1
M  END
