4kin_ligand
 OpenBabel08222323353D

 47 50  0  0  0  0  0  0  0  0999 V2000
    1.9350   -2.2880   -4.5670 C   0  0  0  0  0  0  0  0  0  0  0  0
    2.5630   -1.3860   -5.4230 C   0  0  0  0  0  0  0  0  0  0  0  0
    1.8940   -0.9770   -6.5740 C   0  0  0  0  0  0  0  0  0  0  0  0
    0.6300   -1.4650   -6.8620 C   0  0  0  0  0  0  0  0  0  0  0  0
   -0.0110   -2.3840   -6.0280 C   0  0  0  0  0  0  0  0  0  0  0  0
    0.6750   -2.7970   -4.8740 C   0  0  0  0  0  0  0  0  0  0  0  0
   -1.3640   -2.9500   -6.3920 C   0  0  0  0  0  0  0  0  0  0  0  0
    0.0780   -3.7400   -4.0070 N   0  0  0  0  0  0  0  0  0  0  0  0
    3.9480   -0.9800   -5.0120 C   0  0  0  0  0  0  0  0  0  0  0  0
    4.4850    0.1040   -5.6110 N   0  0  0  0  0  0  0  0  0  0  0  0
    4.5560   -1.6220   -4.1520 O   0  0  0  0  0  0  0  0  0  0  0  0
    5.8350    0.5860   -5.3070 C   0  0  0  0  0  0  0  0  0  0  0  0
    6.9820   -0.3270   -5.5760 C   0  0  0  0  0  0  0  0  0  0  0  0
    6.7600    0.8710   -6.4400 C   0  0  0  0  0  0  0  0  0  0  0  0
   -0.5340   -3.4010   -2.8640 C   0  0  0  0  0  0  0  0  0  0  0  0
   -1.0450   -4.5230   -2.0600 C   0  0  0  0  0  0  0  0  0  0  0  0
   -0.8780   -5.8990   -2.0650 C   0  0  0  0  0  0  0  0  0  0  0  0
   -1.5210   -6.5380   -0.9900 C   0  0  0  0  0  0  0  0  0  0  0  0
   -2.1670   -5.6570   -0.1390 C   0  0  0  0  0  0  0  0  0  0  0  0
   -1.9610   -4.0240   -0.6830 S   0  0  0  0  0  0  0  0  0  0  0  0
   -0.5920   -2.2440   -2.4240 O   0  0  0  0  0  0  0  0  0  0  0  0
   -2.9390   -5.9150    1.0910 C   0  0  0  0  0  0  0  0  0  0  0  0
   -4.2410   -5.4220    1.1950 C   0  0  0  0  0  0  0  0  0  0  0  0
   -4.9890   -5.6430    2.3440 C   0  0  0  0  0  0  0  0  0  0  0  0
   -4.4560   -6.3580    3.3970 C   0  0  0  0  0  0  0  0  0  0  0  0
   -3.1600   -6.8410    3.3250 C   0  0  0  0  0  0  0  0  0  0  0  0
   -2.4120   -6.6080    2.1790 C   0  0  0  0  0  0  0  0  0  0  0  0
   -0.7760   -7.1620    2.1470 Cl  0  0  0  0  0  0  0  0  0  0  0  0
    2.4311   -2.5966   -3.6539 H   0  0  0  0  0  0  0  0  0  0  0  0
    2.3656   -0.2720   -7.2490 H   0  0  0  0  0  0  0  0  0  0  0  0
    0.1248   -1.1246   -7.7586 H   0  0  0  0  0  0  0  0  0  0  0  0
   -1.7145   -2.4894   -7.3274 H   0  0  0  0  0  0  0  0  0  0  0  0
   -2.0807   -2.7341   -5.5860 H   0  0  0  0  0  0  0  0  0  0  0  0
   -1.2817   -4.0385   -6.5277 H   0  0  0  0  0  0  0  0  0  0  0  0
    0.1140   -4.7072   -4.2587 H   0  0  0  0  0  0  0  0  0  0  0  0
    3.9401    0.5975   -6.2889 H   0  0  0  0  0  0  0  0  0  0  0  0
    5.8227    1.2300   -4.4153 H   0  0  0  0  0  0  0  0  0  0  0  0
    6.8005   -1.3353   -5.9764 H   0  0  0  0  0  0  0  0  0  0  0  0
    7.8366   -0.3555   -4.8840 H   0  0  0  0  0  0  0  0  0  0  0  0
    7.4511    1.7250   -6.3845 H   0  0  0  0  0  0  0  0  0  0  0  0
    6.4150    0.7452   -7.4769 H   0  0  0  0  0  0  0  0  0  0  0  0
   -0.3069   -6.4311   -2.8243 H   0  0  0  0  0  0  0  0  0  0  0  0
   -1.5119   -7.6168   -0.8417 H   0  0  0  0  0  0  0  0  0  0  0  0
   -4.6714   -4.8623    0.3725 H   0  0  0  0  0  0  0  0  0  0  0  0
   -5.9974   -5.2516    2.4141 H   0  0  0  0  0  0  0  0  0  0  0  0
   -5.0532   -6.5421    4.2828 H   0  0  0  0  0  0  0  0  0  0  0  0
   -2.7345   -7.3947    4.1541 H   0  0  0  0  0  0  0  0  0  0  0  0
  1  2  2  0  0  0  0
  1  6  1  0  0  0  0
  1 29  1  0  0  0  0
  2  3  1  0  0  0  0
  2  9  1  0  0  0  0
  3  4  2  0  0  0  0
  3 30  1  0  0  0  0
  4  5  1  0  0  0  0
  4 31  1  0  0  0  0
  5  6  2  0  0  0  0
  5  7  1  0  0  0  0
  6  8  1  0  0  0  0
  7 32  1  0  0  0  0
  7 33  1  0  0  0  0
  7 34  1  0  0  0  0
  8 15  1  0  0  0  0
  8 35  1  0  0  0  0
  9 10  1  0  0  0  0
  9 11  2  0  0  0  0
 10 12  1  0  0  0  0
 10 36  1  0  0  0  0
 12 13  1  0  0  0  0
 12 14  1  0  0  0  0
 12 37  1  0  0  0  0
 13 14  1  0  0  0  0
 13 38  1  0  0  0  0
 13 39  1  0  0  0  0
 14 40  1  0  0  0  0
 14 41  1  0  0  0  0
 15 16  1  0  0  0  0
 15 21  2  0  0  0  0
 16 17  2  0  0  0  0
 16 20  1  0  0  0  0
 17 18  1  0  0  0  0
 17 42  1  0  0  0  0
 18 19  2  0  0  0  0
 18 43  1  0  0  0  0
 19 20  1  0  0  0  0
 19 22  1  0  0  0  0
 22 23  2  0  0  0  0
 22 27  1  0  0  0  0
 23 24  1  0  0  0  0
 23 44  1  0  0  0  0
 24 25  2  0  0  0  0
 24 45  1  0  0  0  0
 25 26  1  0  0  0  0
 25 46  1  0  0  0  0
 26 27  2  0  0  0  0
 26 47  1  0  0  0  0
 27 28  1  0  0  0  0
M  END
