4kio_ligand
 OpenBabel08222323353D

 60 64  0  0  1  0  0  0  0  0999 V2000
   13.8100   11.9900    5.2610 C   0  0  0  0  0  0  0  0  0  0  0  0
   12.6590   11.8790    4.6030 C   0  0  0  0  0  0  0  0  0  0  0  0
   12.7590   11.9710    3.1270 C   0  0  0  0  0  0  0  0  0  0  0  0
   13.8370   12.1430    2.5800 O   0  0  0  0  0  0  0  0  0  0  0  0
   11.5910   11.8610    2.4200 N   0  0  0  0  0  0  0  0  0  0  0  0
   11.4680   11.9110    0.9800 C   0  0  0  0  0  0  0  0  0  0  0  0
   10.0040   11.6640    0.7280 C   0  0  0  0  0  0  0  0  0  0  0  0
    9.6250   10.9330    1.9700 C   0  0  1  0  0  0  0  0  0  0  0  0
   10.3450   11.6640    3.0460 C   0  0  0  0  0  0  0  0  0  0  0  0
    8.2310   10.9450    2.2460 N   0  0  0  0  0  0  0  0  0  0  0  0
    7.3980   10.0220    1.7850 C   0  0  0  0  0  0  0  0  0  0  0  0
    6.1540   10.1150    2.2700 N   0  0  0  0  0  0  0  0  0  0  0  0
    5.3000    9.2170    1.7890 C   0  0  0  0  0  0  0  0  0  0  0  0
    3.8580    9.2490    2.2410 C   0  0  0  0  0  0  0  0  0  0  0  0
    3.6650    9.5230    3.6500 N   0  3  0  0  0  0  0  0  0  0  0  0
    4.2660    8.4640    4.4890 C   0  0  0  0  0  0  0  0  0  0  0  0
    3.7340    8.4620    5.9250 C   0  0  0  0  0  0  0  0  0  0  0  0
    2.3010    8.4250    5.9610 O   0  0  0  0  0  0  0  0  0  0  0  0
    1.8360    9.6160    5.3000 C   0  0  0  0  0  0  0  0  0  0  0  0
    2.2070    9.5660    3.8240 C   0  0  0  0  0  0  0  0  0  0  0  0
    5.7360    8.2700    0.8740 C   0  0  0  0  0  0  0  0  0  0  0  0
    7.0470    8.2540    0.4510 C   0  0  0  0  0  0  0  0  0  0  0  0
    7.5310    7.2870   -0.4990 N   0  0  0  0  0  0  0  0  0  0  0  0
    8.6830    7.2040   -1.1610 C   0  0  0  0  0  0  0  0  0  0  0  0
    8.9730    6.2380   -2.0000 N   0  0  0  0  0  0  0  0  0  0  0  0
   10.2410    6.4530   -2.4930 C   0  0  0  0  0  0  0  0  0  0  0  0
   10.9520    5.6760   -3.3830 C   0  0  0  0  0  0  0  0  0  0  0  0
   12.2370    6.0950   -3.7330 C   0  0  0  0  0  0  0  0  0  0  0  0
   12.8010    7.2370   -3.2230 C   0  0  0  0  0  0  0  0  0  0  0  0
   12.1170    7.9820   -2.3570 N   0  0  0  0  0  0  0  0  0  0  0  0
   10.8850    7.5820   -2.0180 C   0  0  0  0  0  0  0  0  0  0  0  0
    9.8910    8.4240   -0.9110 S   0  0  0  0  0  0  0  0  0  0  0  0
    7.9280    9.1460    0.8930 N   0  0  0  0  0  0  0  0  0  0  0  0
   13.8232   11.9333    6.3484 H   0  0  0  0  0  0  0  0  0  0  0  0
   14.7389   12.1376    4.7121 H   0  0  0  0  0  0  0  0  0  0  0  0
   11.7087   11.7307    5.1137 H   0  0  0  0  0  0  0  0  0  0  0  0
   12.0826   11.1302    0.5082 H   0  0  0  0  0  0  0  0  0  0  0  0
   11.7694   12.8968    0.5963 H   0  0  0  0  0  0  0  0  0  0  0  0
    9.8463   11.0468   -0.1688 H   0  0  0  0  0  0  0  0  0  0  0  0
    9.4461   12.6066    0.6272 H   0  0  0  0  0  0  0  0  0  0  0  0
    9.9661    9.8890    1.9090 H   0  0  0  0  0  0  0  0  0  0  0  0
    9.8551   12.6185    3.2887 H   0  0  0  0  0  0  0  0  0  0  0  0
   10.4386   11.0574    3.9588 H   0  0  0  0  0  0  0  0  0  0  0  0
    7.8511   11.7039    2.8297 H   0  0  0  0  0  0  0  0  0  0  0  0
    3.4088    8.2697    2.0190 H   0  0  0  0  0  0  0  0  0  0  0  0
    3.3375   10.0298    1.6670 H   0  0  0  0  0  0  0  0  0  0  0  0
    4.0750   10.4108    3.8943 H   0  0  0  0  0  0  0  0  0  0  0  0
    5.3549    8.6168    4.5192 H   0  0  0  0  0  0  0  0  0  0  0  0
    4.0452    7.4879    4.0324 H   0  0  0  0  0  0  0  0  0  0  0  0
    4.0797    9.3737    6.4342 H   0  0  0  0  0  0  0  0  0  0  0  0
    4.1264    7.5781    6.4491 H   0  0  0  0  0  0  0  0  0  0  0  0
    2.3031   10.4971    5.7641 H   0  0  0  0  0  0  0  0  0  0  0  0
    0.7427    9.6855    5.3994 H   0  0  0  0  0  0  0  0  0  0  0  0
    1.7638    8.6665    3.3718 H   0  0  0  0  0  0  0  0  0  0  0  0
    1.8109   10.4615    3.3228 H   0  0  0  0  0  0  0  0  0  0  0  0
    5.0384    7.5355    0.4881 H   0  0  0  0  0  0  0  0  0  0  0  0
    6.8691    6.5245   -0.7026 H   0  0  0  0  0  0  0  0  0  0  0  0
   10.5269    4.7691   -3.7976 H   0  0  0  0  0  0  0  0  0  0  0  0
   12.8095    5.4967   -4.4326 H   0  0  0  0  0  0  0  0  0  0  0  0
   13.7998    7.5317   -3.5240 H   0  0  0  0  0  0  0  0  0  0  0  0
  1  2  2  0  0  0  0
  1 34  1  0  0  0  0
  1 35  1  0  0  0  0
  2  3  1  0  0  0  0
  2 36  1  0  0  0  0
  3  4  2  0  0  0  0
  3  5  1  0  0  0  0
  5  6  1  0  0  0  0
  5  9  1  0  0  0  0
  6  7  1  0  0  0  0
  6 37  1  0  0  0  0
  6 38  1  0  0  0  0
  7  8  1  0  0  0  0
  7 39  1  0  0  0  0
  7 40  1  0  0  0  0
  8  9  1  0  0  0  0
  8 10  1  0  0  0  0
  8 41  1  6  0  0  0
  9 42  1  0  0  0  0
  9 43  1  0  0  0  0
 10 11  1  0  0  0  0
 10 44  1  0  0  0  0
 11 12  2  0  0  0  0
 11 33  1  0  0  0  0
 12 13  1  0  0  0  0
 13 14  1  0  0  0  0
 13 21  2  0  0  0  0
 14 15  1  0  0  0  0
 14 45  1  0  0  0  0
 14 46  1  0  0  0  0
 15 16  1  0  0  0  0
 15 20  1  0  0  0  0
 15 47  1  0  0  0  0
 16 17  1  0  0  0  0
 16 48  1  0  0  0  0
 16 49  1  0  0  0  0
 17 18  1  0  0  0  0
 17 50  1  0  0  0  0
 17 51  1  0  0  0  0
 18 19  1  0  0  0  0
 19 20  1  0  0  0  0
 19 52  1  0  0  0  0
 19 53  1  0  0  0  0
 20 54  1  0  0  0  0
 20 55  1  0  0  0  0
 21 22  1  0  0  0  0
 21 56  1  0  0  0  0
 22 23  1  0  0  0  0
 22 33  2  0  0  0  0
 23 24  1  0  0  0  0
 23 57  1  0  0  0  0
 24 25  2  0  0  0  0
 24 32  1  0  0  0  0
 25 26  1  0  0  0  0
 26 27  2  0  0  0  0
 26 31  1  0  0  0  0
 27 28  1  0  0  0  0
 27 58  1  0  0  0  0
 28 29  2  0  0  0  0
 28 59  1  0  0  0  0
 29 30  1  0  0  0  0
 29 60  1  0  0  0  0
 30 31  2  0  0  0  0
 31 32  1  0  0  0  0
M  CHG  1  15   1
M  END
