4kiq_ligand
 OpenBabel08222323353D

 51 54  0  0  1  0  0  0  0  0999 V2000
    0.0020   -4.1130   -6.4740 C   0  0  0  0  0  0  0  0  0  0  0  0
    4.0970   -1.1620   -5.5960 N   0  0  0  0  0  0  0  0  0  0  0  0
    5.3060   -0.4850   -5.1310 C   0  0  2  0  0  0  0  0  0  0  0  0
    6.1860    0.1430   -6.1320 C   0  0  0  0  0  0  0  0  0  0  0  0
    6.6030   -1.0960   -5.4470 C   0  0  0  0  0  0  0  0  0  0  0  0
   -0.0420   -5.3970   -4.3880 N   0  0  0  0  0  0  0  0  0  0  0  0
   -0.5690   -5.1570   -3.1630 C   0  0  0  0  0  0  0  0  0  0  0  0
   -0.7480   -4.0220   -2.7210 O   0  0  0  0  0  0  0  0  0  0  0  0
   -0.8730   -6.3670   -2.3340 C   0  0  0  0  0  0  0  0  0  0  0  0
   -1.7220   -6.2010   -1.2400 C   0  0  0  0  0  0  0  0  0  0  0  0
    0.5640   -4.4250   -5.2160 C   0  0  0  0  0  0  0  0  0  0  0  0
   -0.5550   -8.6850   -1.7300 C   0  0  0  0  0  0  0  0  0  0  0  0
   -0.2940   -7.6170   -2.5720 C   0  0  0  0  0  0  0  0  0  0  0  0
   -1.4000   -8.5310   -0.6230 C   0  0  0  0  0  0  0  0  0  0  0  0
   -1.9830   -7.2710   -0.3860 C   0  0  0  0  0  0  0  0  0  0  0  0
   -2.7410   -7.3710    0.7930 N   0  0  0  0  0  0  0  0  0  0  0  0
   -2.6210   -8.6740    1.2640 C   0  0  0  0  0  0  0  0  0  0  0  0
   -1.8260   -9.3970    0.4390 C   0  0  0  0  0  0  0  0  0  0  0  0
   -3.5440   -6.3820    1.4350 C   0  0  0  0  0  0  0  0  0  0  0  0
   -4.1130   -6.5780    2.4780 O   0  0  0  0  0  0  0  0  0  0  0  0
   -3.5860   -5.2280    0.7600 O   0  0  0  0  0  0  0  0  0  0  0  0
    1.6960   -3.7620   -4.7580 C   0  0  0  0  0  0  0  0  0  0  0  0
   -4.2350   -4.1010    1.4250 C   0  0  0  0  0  0  0  0  0  0  0  0
   -3.8860   -2.9260    0.6430 C   0  0  0  0  0  0  0  0  0  0  0  0
    2.3130   -2.7920   -5.5430 C   0  0  0  0  0  0  0  0  0  0  0  0
    1.7620   -2.4660   -6.7820 C   0  0  0  0  0  0  0  0  0  0  0  0
    0.6320   -3.1250   -7.2360 C   0  0  0  0  0  0  0  0  0  0  0  0
   -1.2520   -4.7830   -6.9680 C   0  0  0  0  0  0  0  0  0  0  0  0
    3.5910   -2.2510   -4.9930 C   0  0  0  0  0  0  0  0  0  0  0  0
    4.1230   -2.7790   -4.0200 O   0  0  0  0  0  0  0  0  0  0  0  0
    3.6251   -0.7983   -6.3992 H   0  0  0  0  0  0  0  0  0  0  0  0
    5.1298   -0.0057   -4.1567 H   0  0  0  0  0  0  0  0  0  0  0  0
    6.3836    0.9376   -6.8499 H   0  0  0  0  0  0  0  0  0  0  0  0
    7.3363   -1.8857   -5.2905 H   0  0  0  0  0  0  0  0  0  0  0  0
   -0.0852   -6.3346   -4.7330 H   0  0  0  0  0  0  0  0  0  0  0  0
   -2.1804   -5.2366   -1.0533 H   0  0  0  0  0  0  0  0  0  0  0  0
   -0.1013   -9.6491   -1.9292 H   0  0  0  0  0  0  0  0  0  0  0  0
    0.3646   -7.7513   -3.4225 H   0  0  0  0  0  0  0  0  0  0  0  0
   -3.0970   -9.0575    2.1652 H   0  0  0  0  0  0  0  0  0  0  0  0
   -1.5586  -10.4457    0.5599 H   0  0  0  0  0  0  0  0  0  0  0  0
    2.1018   -4.0020   -3.7819 H   0  0  0  0  0  0  0  0  0  0  0  0
   -3.8645   -3.9992    2.4557 H   0  0  0  0  0  0  0  0  0  0  0  0
   -5.3259   -4.2413    1.4397 H   0  0  0  0  0  0  0  0  0  0  0  0
   -4.3472   -2.0351    1.0941 H   0  0  0  0  0  0  0  0  0  0  0  0
   -4.2541   -3.0480   -0.3864 H   0  0  0  0  0  0  0  0  0  0  0  0
   -2.7927   -2.8059    0.6296 H   0  0  0  0  0  0  0  0  0  0  0  0
    2.2195   -1.6948   -7.3911 H   0  0  0  0  0  0  0  0  0  0  0  0
    0.2255   -2.8680   -8.2075 H   0  0  0  0  0  0  0  0  0  0  0  0
   -1.5874   -5.5246   -6.2280 H   0  0  0  0  0  0  0  0  0  0  0  0
   -1.0465   -5.2863   -7.9242 H   0  0  0  0  0  0  0  0  0  0  0  0
   -2.0386   -4.0278   -7.1127 H   0  0  0  0  0  0  0  0  0  0  0  0
  1 27  1  0  0  0  0
  1 28  1  0  0  0  0
  2  3  1  0  0  0  0
  2 31  1  0  0  0  0
  3  4  1  0  0  0  0
  3  5  1  0  0  0  0
  3 32  1  1  0  0  0
  4 33  1  0  0  0  0
  5  4  2  0  0  0  0
  5 34  1  0  0  0  0
  6  7  1  0  0  0  0
  6 35  1  0  0  0  0
  7  8  2  0  0  0  0
  7  9  1  0  0  0  0
  9 10  2  0  0  0  0
  9 13  1  0  0  0  0
 10 15  1  0  0  0  0
 10 36  1  0  0  0  0
 11  1  2  0  0  0  0
 11  6  1  0  0  0  0
 12 14  1  0  0  0  0
 12 37  1  0  0  0  0
 13 12  2  0  0  0  0
 13 38  1  0  0  0  0
 14 18  1  0  0  0  0
 15 14  2  0  0  0  0
 15 16  1  0  0  0  0
 16 17  1  0  0  0  0
 16 19  1  0  0  0  0
 17 39  1  0  0  0  0
 18 17  2  0  0  0  0
 18 40  1  0  0  0  0
 19 20  2  0  0  0  0
 19 21  1  0  0  0  0
 21 23  1  0  0  0  0
 22 11  1  0  0  0  0
 22 41  1  0  0  0  0
 23 24  1  0  0  0  0
 23 42  1  0  0  0  0
 23 43  1  0  0  0  0
 24 44  1  0  0  0  0
 24 45  1  0  0  0  0
 24 46  1  0  0  0  0
 25 22  2  0  0  0  0
 25 26  1  0  0  0  0
 25 29  1  0  0  0  0
 26 27  2  0  0  0  0
 26 47  1  0  0  0  0
 27 48  1  0  0  0  0
 28 49  1  0  0  0  0
 28 50  1  0  0  0  0
 28 51  1  0  0  0  0
 29  2  1  0  0  0  0
 29 30  2  0  0  0  0
M  END
