4kju_ligand
 OpenBabel08222323353D

 75 79  0  0  1  0  0  0  0  0999 V2000
   28.7790   29.4480   11.6380 C   0  0  0  0  0  0  0  0  0  0  0  0
   28.7590   30.9010   11.6220 O   0  0  0  0  0  0  0  0  0  0  0  0
   29.1160   31.4850   12.7850 C   0  0  0  0  0  0  0  0  0  0  0  0
   29.9090   30.8530   13.7510 C   0  0  0  0  0  0  0  0  0  0  0  0
   30.2270   31.5100   14.9310 C   0  0  0  0  0  0  0  0  0  0  0  0
   29.7350   32.8020   15.1620 C   0  0  0  0  0  0  0  0  0  0  0  0
   30.0500   33.4610   16.3410 C   0  0  0  0  0  0  0  0  0  0  0  0
   29.5610   34.7460   16.6420 C   0  0  0  0  0  0  0  0  0  0  0  0
   28.7580   35.3110   15.6860 C   0  0  0  0  0  0  0  0  0  0  0  0
   28.4640   34.7050   14.4750 C   0  0  0  0  0  0  0  0  0  0  0  0
   28.9350   33.4180   14.1700 C   0  0  0  0  0  0  0  0  0  0  0  0
   28.6160   32.7900   12.9740 C   0  0  0  0  0  0  0  0  0  0  0  0
   27.7990   33.3530   11.9820 C   0  0  0  0  0  0  0  0  0  0  0  0
   28.5030   34.4290   11.1490 N   0  0  0  0  0  0  0  0  0  0  0  0
   27.8800   35.6150   10.9440 C   0  0  0  0  0  0  0  0  0  0  0  0
   26.7500   35.8470   11.4610 O   0  0  0  0  0  0  0  0  0  0  0  0
   28.4720   36.5760   10.0520 C   0  0  2  0  0  0  0  0  0  0  0  0
   29.6610   37.2680   10.6120 C   0  0  0  0  0  0  0  0  0  0  0  0
   27.4660   37.5310    9.6340 N   0  0  0  0  0  0  0  0  0  0  0  0
   26.6750   37.4170    8.5810 C   0  0  0  0  0  0  0  0  0  0  0  0
   26.6320   36.4740    7.7690 O   0  0  0  0  0  0  0  0  0  0  0  0
   25.6470   38.5280    8.4790 C   0  0  2  0  0  0  0  0  0  0  0  0
   24.4860   38.1470    9.5070 C   0  0  0  0  0  0  0  0  0  0  0  0
   25.0950   38.5410    7.1320 N   0  3  0  0  0  0  0  0  0  0  0  0
   26.0520   39.0330    6.0730 C   0  0  0  0  0  0  0  0  0  0  0  0
   29.7330   34.1860   10.6090 C   0  0  0  0  0  0  0  0  0  0  0  0
   29.9800   32.9620    9.9530 C   0  0  0  0  0  0  0  0  0  0  0  0
   31.2460   32.7130    9.3820 C   0  0  0  0  0  0  0  0  0  0  0  0
   32.2520   33.6690    9.4450 C   0  0  0  0  0  0  0  0  0  0  0  0
   32.0160   34.8810   10.0600 C   0  0  0  0  0  0  0  0  0  0  0  0
   30.7460   35.1090   10.6700 C   0  0  0  0  0  0  0  0  0  0  0  0
   30.6430   36.3390   11.1790 N   0  0  0  0  0  0  0  0  0  0  0  0
   31.4830   36.9060   12.0710 C   0  0  0  0  0  0  0  0  0  0  0  0
   31.3130   38.0880   12.3770 O   0  0  0  0  0  0  0  0  0  0  0  0
   32.4100   36.2050   12.8490 C   0  0  0  0  0  0  0  0  0  0  0  0
   33.6120   36.8330   13.1700 C   0  0  0  0  0  0  0  0  0  0  0  0
   34.5240   36.1820   13.9980 C   0  0  0  0  0  0  0  0  0  0  0  0
   34.2280   34.9380   14.5230 C   0  0  0  0  0  0  0  0  0  0  0  0
   35.1120   34.3250   15.3090 N   0  0  0  0  0  0  0  0  0  0  0  0
   33.0220   34.3260   14.2100 C   0  0  0  0  0  0  0  0  0  0  0  0
   32.1300   34.9560   13.3840 C   0  0  0  0  0  0  0  0  0  0  0  0
   28.4752   29.0663   10.6521 H   0  0  0  0  0  0  0  0  0  0  0  0
   28.0811   29.0801   12.4046 H   0  0  0  0  0  0  0  0  0  0  0  0
   29.7958   29.0978   11.8693 H   0  0  0  0  0  0  0  0  0  0  0  0
   30.2753   29.8478   13.5763 H   0  0  0  0  0  0  0  0  0  0  0  0
   30.8535   31.0260   15.6714 H   0  0  0  0  0  0  0  0  0  0  0  0
   30.6970   32.9679   17.0575 H   0  0  0  0  0  0  0  0  0  0  0  0
   29.8033   35.2547   17.5680 H   0  0  0  0  0  0  0  0  0  0  0  0
   28.3291   36.2858   15.8883 H   0  0  0  0  0  0  0  0  0  0  0  0
   27.8584   35.2351   13.7488 H   0  0  0  0  0  0  0  0  0  0  0  0
   26.9231   33.8069   12.4685 H   0  0  0  0  0  0  0  0  0  0  0  0
   27.4683   32.5505   11.3063 H   0  0  0  0  0  0  0  0  0  0  0  0
   28.8095   36.0286    9.1596 H   0  0  0  0  0  0  0  0  0  0  0  0
   29.3277   37.9542   11.4045 H   0  0  0  0  0  0  0  0  0  0  0  0
   30.1442   37.8430    9.8083 H   0  0  0  0  0  0  0  0  0  0  0  0
   27.3601   38.3527   10.1940 H   0  0  0  0  0  0  0  0  0  0  0  0
   26.0913   39.5039    8.7244 H   0  0  0  0  0  0  0  0  0  0  0  0
   23.7040   38.9201    9.4798 H   0  0  0  0  0  0  0  0  0  0  0  0
   24.9025   38.0824   10.5230 H   0  0  0  0  0  0  0  0  0  0  0  0
   24.0517   37.1761    9.2263 H   0  0  0  0  0  0  0  0  0  0  0  0
   24.2849   39.1408    7.1286 H   0  0  0  0  0  0  0  0  0  0  0  0
   24.8182   37.6011    6.8952 H   0  0  0  0  0  0  0  0  0  0  0  0
   25.5560   39.0100    5.0914 H   0  0  0  0  0  0  0  0  0  0  0  0
   26.9396   38.3836    6.0506 H   0  0  0  0  0  0  0  0  0  0  0  0
   26.3576   40.0638    6.3053 H   0  0  0  0  0  0  0  0  0  0  0  0
   29.1984   32.2138    9.8876 H   0  0  0  0  0  0  0  0  0  0  0  0
   31.4356   31.7663    8.8892 H   0  0  0  0  0  0  0  0  0  0  0  0
   33.2234   33.4623    9.0105 H   0  0  0  0  0  0  0  0  0  0  0  0
   32.7823   35.6474   10.0797 H   0  0  0  0  0  0  0  0  0  0  0  0
   33.8353   37.8191   12.7790 H   0  0  0  0  0  0  0  0  0  0  0  0
   35.4714   36.6539   14.2319 H   0  0  0  0  0  0  0  0  0  0  0  0
   34.8956   33.3980   15.7024 H   0  0  0  0  0  0  0  0  0  0  0  0
   36.0118   34.7781   15.5233 H   0  0  0  0  0  0  0  0  0  0  0  0
   32.7866   33.3502   14.6192 H   0  0  0  0  0  0  0  0  0  0  0  0
   31.1905   34.4713   13.1444 H   0  0  0  0  0  0  0  0  0  0  0  0
  1  2  1  0  0  0  0
  1 42  1  0  0  0  0
  1 43  1  0  0  0  0
  1 44  1  0  0  0  0
  2  3  1  0  0  0  0
  3  4  2  0  0  0  0
  3 12  1  0  0  0  0
  4  5  1  0  0  0  0
  4 45  1  0  0  0  0
  5  6  2  0  0  0  0
  5 46  1  0  0  0  0
  6  7  1  0  0  0  0
  6 11  1  0  0  0  0
  7  8  2  0  0  0  0
  7 47  1  0  0  0  0
  8  9  1  0  0  0  0
  8 48  1  0  0  0  0
  9 10  2  0  0  0  0
  9 49  1  0  0  0  0
 10 11  1  0  0  0  0
 10 50  1  0  0  0  0
 11 12  2  0  0  0  0
 12 13  1  0  0  0  0
 13 14  1  0  0  0  0
 13 51  1  0  0  0  0
 13 52  1  0  0  0  0
 14 15  1  0  0  0  0
 14 26  1  0  0  0  0
 15 16  2  0  0  0  0
 15 17  1  0  0  0  0
 17 18  1  0  0  0  0
 17 19  1  0  0  0  0
 17 53  1  6  0  0  0
 18 32  1  0  0  0  0
 18 54  1  0  0  0  0
 18 55  1  0  0  0  0
 19 20  1  0  0  0  0
 19 56  1  0  0  0  0
 20 21  2  0  0  0  0
 20 22  1  0  0  0  0
 22 23  1  0  0  0  0
 22 24  1  0  0  0  0
 22 57  1  1  0  0  0
 23 58  1  0  0  0  0
 23 59  1  0  0  0  0
 23 60  1  0  0  0  0
 24 25  1  0  0  0  0
 24 61  1  0  0  0  0
 24 62  1  0  0  0  0
 25 63  1  0  0  0  0
 25 64  1  0  0  0  0
 25 65  1  0  0  0  0
 26 27  2  0  0  0  0
 26 31  1  0  0  0  0
 27 28  1  0  0  0  0
 27 66  1  0  0  0  0
 28 29  2  0  0  0  0
 28 67  1  0  0  0  0
 29 30  1  0  0  0  0
 29 68  1  0  0  0  0
 30 31  2  0  0  0  0
 30 69  1  0  0  0  0
 31 32  1  0  0  0  0
 32 33  1  0  0  0  0
 33 34  2  0  0  0  0
 33 35  1  0  0  0  0
 35 36  2  0  0  0  0
 35 41  1  0  0  0  0
 36 37  1  0  0  0  0
 36 70  1  0  0  0  0
 37 38  2  0  0  0  0
 37 71  1  0  0  0  0
 38 39  1  0  0  0  0
 38 40  1  0  0  0  0
 39 72  1  0  0  0  0
 39 73  1  0  0  0  0
 40 41  2  0  0  0  0
 40 74  1  0  0  0  0
 41 75  1  0  0  0  0
M  CHG  1  24   1
M  END
