4kjv_ligand
 OpenBabel08222323353D

 73 77  0  0  1  0  0  0  0  0999 V2000
   27.8440   28.0450   10.7760 C   0  0  0  0  0  0  0  0  0  0  0  0
   27.8590   29.4480   11.1160 O   0  0  0  0  0  0  0  0  0  0  0  0
   28.5050   29.9000   12.2720 C   0  0  0  0  0  0  0  0  0  0  0  0
   29.3100   29.0850   13.0900 C   0  0  0  0  0  0  0  0  0  0  0  0
   29.8970   29.5910   14.2480 C   0  0  0  0  0  0  0  0  0  0  0  0
   29.7080   30.9650   14.5830 C   0  0  0  0  0  0  0  0  0  0  0  0
   30.2890   31.5110   15.7380 C   0  0  0  0  0  0  0  0  0  0  0  0
   30.1260   32.8710   16.1200 C   0  0  0  0  0  0  0  0  0  0  0  0
   30.7320   33.4090   17.2670 C   0  0  0  0  0  0  0  0  0  0  0  0
   30.3870   34.5340   17.7290 O   0  5  0  0  0  0  0  0  0  0  0  0
   31.6110   32.7670   17.8710 O   0  0  0  0  0  0  0  0  0  0  0  0
   29.3220   33.7020   15.3210 C   0  0  0  0  0  0  0  0  0  0  0  0
   28.7610   33.1700   14.1640 C   0  0  0  0  0  0  0  0  0  0  0  0
   28.9130   31.8040   13.7710 C   0  0  0  0  0  0  0  0  0  0  0  0
   28.3170   31.2920   12.6160 C   0  0  0  0  0  0  0  0  0  0  0  0
   27.4890   32.1200   11.8140 C   0  0  0  0  0  0  0  0  0  0  0  0
   28.2940   33.1620   11.0470 N   0  0  0  0  0  0  0  0  0  0  0  0
   27.9320   34.4970   11.0520 C   0  0  0  0  0  0  0  0  0  0  0  0
   27.0020   34.9040   11.8040 O   0  0  0  0  0  0  0  0  0  0  0  0
   29.4510   32.7560   10.3470 C   0  0  0  0  0  0  0  0  0  0  0  0
   29.4590   31.5990    9.5540 C   0  0  0  0  0  0  0  0  0  0  0  0
   30.6210   31.2300    8.8180 C   0  0  0  0  0  0  0  0  0  0  0  0
   31.7710   32.0220    8.8980 C   0  0  0  0  0  0  0  0  0  0  0  0
   31.8090   33.1690    9.7160 C   0  0  0  0  0  0  0  0  0  0  0  0
   30.6150   33.5360   10.4150 C   0  0  0  0  0  0  0  0  0  0  0  0
   30.7420   34.6840   11.2000 O   0  0  0  0  0  0  0  0  0  0  0  0
   30.0620   35.8770   10.7730 C   0  0  0  0  0  0  0  0  0  0  0  0
   30.8340   36.4970    9.6210 C   0  0  0  0  0  0  0  0  0  0  0  0
   32.0340   37.2800   10.1710 C   0  0  0  0  0  0  0  0  0  0  0  0
   31.8320   38.0250   11.3490 O   0  0  0  0  0  0  0  0  0  0  0  0
   31.3900   37.2310   12.3990 C   0  0  0  0  0  0  0  0  0  0  0  0
   29.9690   36.7830   11.9910 C   0  0  0  0  0  0  0  0  0  0  0  0
   28.6350   35.4810   10.2010 C   0  0  2  0  0  0  0  0  0  0  0  0
   27.7280   36.6140    9.8590 N   0  0  0  0  0  0  0  0  0  0  0  0
   26.8940   36.5690    8.8080 C   0  0  0  0  0  0  0  0  0  0  0  0
   26.8140   35.6210    8.0130 O   0  0  0  0  0  0  0  0  0  0  0  0
   25.8590   37.7300    8.7820 C   0  0  2  0  0  0  0  0  0  0  0  0
   24.6830   37.3850    9.8060 C   0  0  0  0  0  0  0  0  0  0  0  0
   25.3230   37.9140    7.4420 N   0  3  0  0  0  0  0  0  0  0  0  0
   26.3220   38.3710    6.4080 C   0  0  0  0  0  0  0  0  0  0  0  0
   27.2887   27.9011    9.8374 H   0  0  0  0  0  0  0  0  0  0  0  0
   27.3553   27.4776   11.5817 H   0  0  0  0  0  0  0  0  0  0  0  0
   28.8765   27.6872   10.6497 H   0  0  0  0  0  0  0  0  0  0  0  0
   29.4755   28.0495   12.8153 H   0  0  0  0  0  0  0  0  0  0  0  0
   30.4908   28.9478   14.8874 H   0  0  0  0  0  0  0  0  0  0  0  0
   30.8901   30.8658   16.3684 H   0  0  0  0  0  0  0  0  0  0  0  0
   29.1429   34.7341   15.5998 H   0  0  0  0  0  0  0  0  0  0  0  0
   28.1782   33.8258   13.5273 H   0  0  0  0  0  0  0  0  0  0  0  0
   26.7676   32.6367   12.4640 H   0  0  0  0  0  0  0  0  0  0  0  0
   26.9474   31.4892   11.0938 H   0  0  0  0  0  0  0  0  0  0  0  0
   28.5713   30.9792    9.5008 H   0  0  0  0  0  0  0  0  0  0  0  0
   30.6142   30.3401    8.1991 H   0  0  0  0  0  0  0  0  0  0  0  0
   32.6474   31.7491    8.3214 H   0  0  0  0  0  0  0  0  0  0  0  0
   32.7153   33.7557    9.8129 H   0  0  0  0  0  0  0  0  0  0  0  0
   30.1755   37.1794    9.0636 H   0  0  0  0  0  0  0  0  0  0  0  0
   31.1915   35.7024    8.9496 H   0  0  0  0  0  0  0  0  0  0  0  0
   32.3586   37.9810    9.3879 H   0  0  0  0  0  0  0  0  0  0  0  0
   32.8377   36.5561   10.3712 H   0  0  0  0  0  0  0  0  0  0  0  0
   31.3594   37.8089   13.3344 H   0  0  0  0  0  0  0  0  0  0  0  0
   32.0481   36.3591   12.5280 H   0  0  0  0  0  0  0  0  0  0  0  0
   29.5029   36.2347   12.8229 H   0  0  0  0  0  0  0  0  0  0  0  0
   29.3604   37.6663   11.7472 H   0  0  0  0  0  0  0  0  0  0  0  0
   28.8404   34.9709    9.2483 H   0  0  0  0  0  0  0  0  0  0  0  0
   27.7414   37.4341   10.4311 H   0  0  0  0  0  0  0  0  0  0  0  0
   26.3529   38.6609    9.0972 H   0  0  0  0  0  0  0  0  0  0  0  0
   23.9414   38.1974    9.7998 H   0  0  0  0  0  0  0  0  0  0  0  0
   25.0987   37.2759   10.8185 H   0  0  0  0  0  0  0  0  0  0  0  0
   24.1989   36.4443    9.5050 H   0  0  0  0  0  0  0  0  0  0  0  0
   24.5885   38.6026    7.4917 H   0  0  0  0  0  0  0  0  0  0  0  0
   24.9384   37.0338    7.1364 H   0  0  0  0  0  0  0  0  0  0  0  0
   25.8195   38.4792    5.4355 H   0  0  0  0  0  0  0  0  0  0  0  0
   27.1283   37.6275    6.3234 H   0  0  0  0  0  0  0  0  0  0  0  0
   26.7465   39.3394    6.7111 H   0  0  0  0  0  0  0  0  0  0  0  0
  1  2  1  0  0  0  0
  1 41  1  0  0  0  0
  1 42  1  0  0  0  0
  1 43  1  0  0  0  0
  2  3  1  0  0  0  0
  3  4  2  0  0  0  0
  3 15  1  0  0  0  0
  4  5  1  0  0  0  0
  4 44  1  0  0  0  0
  5  6  2  0  0  0  0
  5 45  1  0  0  0  0
  6  7  1  0  0  0  0
  6 14  1  0  0  0  0
  7  8  2  0  0  0  0
  7 46  1  0  0  0  0
  8  9  1  0  0  0  0
  8 12  1  0  0  0  0
  9 10  1  0  0  0  0
  9 11  2  0  0  0  0
 12 13  2  0  0  0  0
 12 47  1  0  0  0  0
 13 14  1  0  0  0  0
 13 48  1  0  0  0  0
 14 15  2  0  0  0  0
 15 16  1  0  0  0  0
 16 17  1  0  0  0  0
 16 49  1  0  0  0  0
 16 50  1  0  0  0  0
 17 18  1  0  0  0  0
 17 20  1  0  0  0  0
 18 19  2  0  0  0  0
 18 33  1  0  0  0  0
 20 21  2  0  0  0  0
 20 25  1  0  0  0  0
 21 22  1  0  0  0  0
 21 51  1  0  0  0  0
 22 23  2  0  0  0  0
 22 52  1  0  0  0  0
 23 24  1  0  0  0  0
 23 53  1  0  0  0  0
 24 25  2  0  0  0  0
 24 54  1  0  0  0  0
 25 26  1  0  0  0  0
 26 27  1  0  0  0  0
 27 28  1  0  0  0  0
 27 32  1  0  0  0  0
 27 33  1  0  0  0  0
 28 29  1  0  0  0  0
 28 55  1  0  0  0  0
 28 56  1  0  0  0  0
 29 30  1  0  0  0  0
 29 57  1  0  0  0  0
 29 58  1  0  0  0  0
 30 31  1  0  0  0  0
 31 32  1  0  0  0  0
 31 59  1  0  0  0  0
 31 60  1  0  0  0  0
 32 61  1  0  0  0  0
 32 62  1  0  0  0  0
 33 34  1  0  0  0  0
 33 63  1  6  0  0  0
 34 35  1  0  0  0  0
 34 64  1  0  0  0  0
 35 36  2  0  0  0  0
 35 37  1  0  0  0  0
 37 38  1  0  0  0  0
 37 39  1  0  0  0  0
 37 65  1  1  0  0  0
 38 66  1  0  0  0  0
 38 67  1  0  0  0  0
 38 68  1  0  0  0  0
 39 40  1  0  0  0  0
 39 69  1  0  0  0  0
 39 70  1  0  0  0  0
 40 71  1  0  0  0  0
 40 72  1  0  0  0  0
 40 73  1  0  0  0  0
M  CHG  2  10  -1  39   1
M  END
