4kmd_ligand
 OpenBabel08222323353D

136137  0  0  1  0  0  0  0  0999 V2000
   -9.2940   10.8320   11.2550 N   0  3  0  0  0  0  0  0  0  0  0  0
   -9.9860   12.1400   11.0500 C   0  0  0  0  0  0  0  0  0  0  0  0
  -11.2580   12.3160   11.8590 C   0  0  0  0  0  0  0  0  0  0  0  0
  -11.9290   11.3390   12.2110 O   0  0  0  0  0  0  0  0  0  0  0  0
  -11.5920   13.5740   12.1420 N   0  0  0  0  0  0  0  0  0  0  0  0
  -12.8110   13.9150   12.8660 C   0  0  2  0  0  0  0  0  0  0  0  0
  -14.0330   13.8160   11.9770 C   0  0  0  0  0  0  0  0  0  0  0  0
  -13.9260   13.7350   10.7540 O   0  0  0  0  0  0  0  0  0  0  0  0
  -12.7150   15.3180   13.4610 C   0  0  0  0  0  0  0  0  0  0  0  0
  -11.7050   15.3570   14.4380 O   0  0  0  0  0  0  0  0  0  0  0  0
  -15.1970   13.8410   12.6130 N   0  0  0  0  0  0  0  0  0  0  0  0
  -16.4440   13.6000   11.9310 C   0  0  2  0  0  0  0  0  0  0  0  0
  -17.4820   14.6060   12.3770 C   0  0  0  0  0  0  0  0  0  0  0  0
  -17.5320   14.9770   13.5570 O   0  0  0  0  0  0  0  0  0  0  0  0
  -16.9160   12.2000   12.2770 C   0  0  0  0  0  0  0  0  0  0  0  0
  -17.8420   11.6040   11.2700 C   0  0  0  0  0  0  0  0  0  0  0  0
  -17.3490   10.9760   10.1370 C   0  0  0  0  0  0  0  0  0  0  0  0
  -19.2230   11.6500   11.4590 C   0  0  0  0  0  0  0  0  0  0  0  0
  -18.2120   10.4120    9.1980 C   0  0  0  0  0  0  0  0  0  0  0  0
  -20.0920   11.0910   10.5320 C   0  0  0  0  0  0  0  0  0  0  0  0
  -19.5810   10.4800    9.4030 C   0  0  0  0  0  0  0  0  0  0  0  0
  -20.4370    9.9240    8.4820 O   0  0  0  0  0  0  0  0  0  0  0  0
  -18.3030   15.0550   11.4310 N   0  0  0  0  0  0  0  0  0  0  0  0
  -19.4210   15.9310   11.7470 C   0  0  0  0  0  0  0  0  0  0  0  0
  -20.7360   15.1880   11.7060 C   0  0  0  0  0  0  0  0  0  0  0  0
  -20.9910   14.4200   10.7820 O   0  0  0  0  0  0  0  0  0  0  0  0
  -21.5630   15.4090   12.7210 N   0  0  0  0  0  0  0  0  0  0  0  0
  -22.8750   14.7800   12.8030 C   0  0  2  0  0  0  0  0  0  0  0  0
  -23.8770   15.9180   12.6650 C   0  0  0  0  0  0  0  0  0  0  0  0
  -24.0980   16.6810   13.6100 O   0  0  0  0  0  0  0  0  0  0  0  0
  -23.0010   14.0430   14.1400 C   0  0  0  0  0  0  0  0  0  0  0  0
  -21.8590   13.1050   14.4150 C   0  0  0  0  0  0  0  0  0  0  0  0
  -21.8700   11.7830   14.0250 N   0  0  0  0  0  0  0  0  0  0  0  0
  -20.6650   13.3060   15.0230 C   0  0  0  0  0  0  0  0  0  0  0  0
  -20.7390   11.2070   14.3920 C   0  0  0  0  0  0  0  0  0  0  0  0
  -19.9840   12.1120   14.9920 N   0  0  0  0  0  0  0  0  0  0  0  0
  -24.4530   16.0480   11.4720 N   0  0  0  0  0  0  0  0  0  0  0  0
  -25.1320   17.2950   11.1040 C   0  0  2  0  0  0  0  0  0  0  0  0
  -26.6340   17.2860   11.3330 C   0  0  0  0  0  0  0  0  0  0  0  0
  -27.3350   16.3920   10.8670 O   0  0  0  0  0  0  0  0  0  0  0  0
  -24.8100   17.6960    9.6630 C   0  0  0  0  0  0  0  0  0  0  0  0
  -23.3200   17.7620    9.3120 C   0  0  0  0  0  0  0  0  0  0  0  0
  -23.1780   18.2080    7.8740 C   0  0  0  0  0  0  0  0  0  0  0  0
  -22.5610   18.6710   10.2740 C   0  0  0  0  0  0  0  0  0  0  0  0
  -27.1000   18.2990   12.0680 N   0  0  0  0  0  0  0  0  0  0  0  0
  -28.5290   18.5370   12.3230 C   0  0  2  0  0  0  0  0  0  0  0  0
  -29.2830   17.2820   12.7510 C   0  0  0  0  0  0  0  0  0  0  0  0
  -30.3140   16.9160   12.1730 O   0  0  0  0  0  0  0  0  0  0  0  0
  -29.1840   19.1890   11.1060 C   0  0  0  0  0  0  0  0  0  0  0  0
  -28.6540   20.4900   10.9020 O   0  0  0  0  0  0  0  0  0  0  0  0
  -28.7670   16.6460   13.7980 N   0  0  0  0  0  0  0  0  0  0  0  0
  -29.2270   15.3220   14.1940 C   0  0  2  0  0  0  0  0  0  0  0  0
  -30.4740   15.3740   15.0780 C   0  0  0  0  0  0  0  0  0  0  0  0
  -31.0040   14.3330   15.4800 O   0  0  0  0  0  0  0  0  0  0  0  0
  -28.1010   14.5270   14.8870 C   0  0  2  0  0  0  0  0  0  0  0  0
  -27.7100   15.2000   16.2050 C   0  0  0  0  0  0  0  0  0  0  0  0
  -26.8840   14.4180   13.9660 C   0  0  0  0  0  0  0  0  0  0  0  0
  -26.8740   14.3180   17.1260 C   0  0  0  0  0  0  0  0  0  0  0  0
  -30.9250   16.5900   15.3790 N   0  0  0  0  0  0  0  0  0  0  0  0
  -32.1790   16.8120   16.0910 C   0  0  0  0  0  0  0  0  0  0  0  0
  -33.3750   16.7180   15.1580 C   0  0  0  0  0  0  0  0  0  0  0  0
  -34.5030   16.5160   15.6100 O   0  0  0  0  0  0  0  0  0  0  0  0
  -33.1300   16.8800   13.8550 N   0  0  0  0  0  0  0  0  0  0  0  0
  -34.1670   16.6890   12.8320 C   0  0  2  0  0  0  0  0  0  0  0  0
  -33.8530   15.4820   11.9410 C   0  0  0  0  0  0  0  0  0  0  0  0
  -32.6667   15.0872   11.7849 O   0  5  0  0  0  0  0  0  0  0  0  0
  -34.3980   17.9640   11.9670 C   0  0  2  0  0  0  0  0  0  0  0  0
  -35.6770   17.8830   11.3200 O   0  0  0  0  0  0  0  0  0  0  0  0
  -33.2980   18.1480   10.9130 C   0  0  0  0  0  0  0  0  0  0  0  0
  -34.7922   14.8775   11.3578 O   0  0  0  0  0  0  0  0  0  0  0  0
   -8.4640   10.7979   10.6841 H   0  0  0  0  0  0  0  0  0  0  0  0
   -9.9125   10.0801   10.9939 H   0  0  0  0  0  0  0  0  0  0  0  0
   -9.0386   10.7354   12.2253 H   0  0  0  0  0  0  0  0  0  0  0  0
  -10.2424   12.2290    9.9840 H   0  0  0  0  0  0  0  0  0  0  0  0
   -9.2888   12.9442   11.3279 H   0  0  0  0  0  0  0  0  0  0  0  0
  -10.9846   14.3116   11.8472 H   0  0  0  0  0  0  0  0  0  0  0  0
  -12.9279   13.1969   13.6910 H   0  0  0  0  0  0  0  0  0  0  0  0
  -13.6777   15.5853   13.9212 H   0  0  0  0  0  0  0  0  0  0  0  0
  -12.4779   16.0369   12.6629 H   0  0  0  0  0  0  0  0  0  0  0  0
  -11.9096   14.7373   15.1282 H   0  0  0  0  0  0  0  0  0  0  0  0
  -15.2098   14.0327   13.5944 H   0  0  0  0  0  0  0  0  0  0  0  0
  -16.2944   13.6848   10.8445 H   0  0  0  0  0  0  0  0  0  0  0  0
  -17.4374   12.2403   13.2447 H   0  0  0  0  0  0  0  0  0  0  0  0
  -16.0335   11.5490   12.3628 H   0  0  0  0  0  0  0  0  0  0  0  0
  -16.2780   10.9225    9.9787 H   0  0  0  0  0  0  0  0  0  0  0  0
  -19.6243   12.1301   12.3442 H   0  0  0  0  0  0  0  0  0  0  0  0
  -17.8153    9.9243    8.3149 H   0  0  0  0  0  0  0  0  0  0  0  0
  -21.1632   11.1335   10.6926 H   0  0  0  0  0  0  0  0  0  0  0  0
  -21.0142   10.5971    8.1411 H   0  0  0  0  0  0  0  0  0  0  0  0
  -18.1481   14.7841   10.4809 H   0  0  0  0  0  0  0  0  0  0  0  0
  -19.4508   16.7508   11.0142 H   0  0  0  0  0  0  0  0  0  0  0  0
  -19.2762   16.3456   12.7555 H   0  0  0  0  0  0  0  0  0  0  0  0
  -21.2762   16.0271   13.4529 H   0  0  0  0  0  0  0  0  0  0  0  0
  -23.0105   14.0609   11.9817 H   0  0  0  0  0  0  0  0  0  0  0  0
  -23.9349   13.4619   14.1311 H   0  0  0  0  0  0  0  0  0  0  0  0
  -23.0411   14.7893   14.9471 H   0  0  0  0  0  0  0  0  0  0  0  0
  -20.3104   14.2402   15.4560 H   0  0  0  0  0  0  0  0  0  0  0  0
  -20.4734   10.1637   14.2282 H   0  0  0  0  0  0  0  0  0  0  0  0
  -19.0411   11.9492   15.3733 H   0  0  0  0  0  0  0  0  0  0  0  0
  -24.4225   15.2893   10.8213 H   0  0  0  0  0  0  0  0  0  0  0  0
  -24.7205   18.0775   11.7585 H   0  0  0  0  0  0  0  0  0  0  0  0
  -25.2445   18.6904    9.4832 H   0  0  0  0  0  0  0  0  0  0  0  0
  -25.2833   16.9625    8.9937 H   0  0  0  0  0  0  0  0  0  0  0  0
  -22.8968   16.7507    9.4024 H   0  0  0  0  0  0  0  0  0  0  0  0
  -22.1115   18.2593    7.6097 H   0  0  0  0  0  0  0  0  0  0  0  0
  -23.6343   19.2013    7.7514 H   0  0  0  0  0  0  0  0  0  0  0  0
  -23.6848   17.4877    7.2149 H   0  0  0  0  0  0  0  0  0  0  0  0
  -22.6938   18.3076   11.3037 H   0  0  0  0  0  0  0  0  0  0  0  0
  -22.9507   19.6965   10.1940 H   0  0  0  0  0  0  0  0  0  0  0  0
  -21.4912   18.6642   10.0180 H   0  0  0  0  0  0  0  0  0  0  0  0
  -26.4385   18.9330   12.4686 H   0  0  0  0  0  0  0  0  0  0  0  0
  -28.5949   19.2509   13.1572 H   0  0  0  0  0  0  0  0  0  0  0  0
  -30.2690   19.2607   11.2721 H   0  0  0  0  0  0  0  0  0  0  0  0
  -28.9893   18.5736   10.2153 H   0  0  0  0  0  0  0  0  0  0  0  0
  -27.7171   20.4298   10.7566 H   0  0  0  0  0  0  0  0  0  0  0  0
  -28.0436   17.0884   14.3280 H   0  0  0  0  0  0  0  0  0  0  0  0
  -29.4988   14.7824   13.2748 H   0  0  0  0  0  0  0  0  0  0  0  0
  -28.4689   13.5135   15.1051 H   0  0  0  0  0  0  0  0  0  0  0  0
  -28.6310   15.4808   16.7369 H   0  0  0  0  0  0  0  0  0  0  0  0
  -27.1301   16.1054   15.9727 H   0  0  0  0  0  0  0  0  0  0  0  0
  -27.1794   13.9331   13.0239 H   0  0  0  0  0  0  0  0  0  0  0  0
  -26.1042   13.8183   14.4582 H   0  0  0  0  0  0  0  0  0  0  0  0
  -26.4935   15.4242   13.7537 H   0  0  0  0  0  0  0  0  0  0  0  0
  -26.6356   14.8712   18.0464 H   0  0  0  0  0  0  0  0  0  0  0  0
  -25.9412   14.0356   16.6160 H   0  0  0  0  0  0  0  0  0  0  0  0
  -27.4421   13.4110   17.3801 H   0  0  0  0  0  0  0  0  0  0  0  0
  -30.3818   17.3839   15.1058 H   0  0  0  0  0  0  0  0  0  0  0  0
  -32.1589   17.8132   16.5461 H   0  0  0  0  0  0  0  0  0  0  0  0
  -32.2810   16.0524   16.8801 H   0  0  0  0  0  0  0  0  0  0  0  0
  -32.2088   17.1403   13.5658 H   0  0  0  0  0  0  0  0  0  0  0  0
  -35.1086   16.4765   13.3595 H   0  0  0  0  0  0  0  0  0  0  0  0
  -34.3912   18.8402   12.6320 H   0  0  0  0  0  0  0  0  0  0  0  0
  -35.7004   17.1143   10.7622 H   0  0  0  0  0  0  0  0  0  0  0  0
  -33.5000   19.0568   10.3271 H   0  0  0  0  0  0  0  0  0  0  0  0
  -33.2825   17.2757   10.2430 H   0  0  0  0  0  0  0  0  0  0  0  0
  -32.3230   18.2435   11.4133 H   0  0  0  0  0  0  0  0  0  0  0  0
  1  2  1  0  0  0  0
  1 71  1  0  0  0  0
  1 72  1  0  0  0  0
  1 73  1  0  0  0  0
  2  3  1  0  0  0  0
  2 74  1  0  0  0  0
  2 75  1  0  0  0  0
  3  4  2  0  0  0  0
  3  5  1  0  0  0  0
  5  6  1  0  0  0  0
  5 76  1  0  0  0  0
  6  7  1  0  0  0  0
  6  9  1  0  0  0  0
  6 77  1  1  0  0  0
  7  8  2  0  0  0  0
  7 11  1  0  0  0  0
  9 10  1  0  0  0  0
  9 78  1  0  0  0  0
  9 79  1  0  0  0  0
 10 80  1  0  0  0  0
 11 12  1  0  0  0  0
 11 81  1  0  0  0  0
 12 13  1  0  0  0  0
 12 15  1  0  0  0  0
 12 82  1  6  0  0  0
 13 14  2  0  0  0  0
 13 23  1  0  0  0  0
 15 16  1  0  0  0  0
 15 83  1  0  0  0  0
 15 84  1  0  0  0  0
 16 17  2  0  0  0  0
 16 18  1  0  0  0  0
 17 19  1  0  0  0  0
 17 85  1  0  0  0  0
 18 20  2  0  0  0  0
 18 86  1  0  0  0  0
 19 21  2  0  0  0  0
 19 87  1  0  0  0  0
 20 21  1  0  0  0  0
 20 88  1  0  0  0  0
 21 22  1  0  0  0  0
 22 89  1  0  0  0  0
 23 24  1  0  0  0  0
 23 90  1  0  0  0  0
 24 25  1  0  0  0  0
 24 91  1  0  0  0  0
 24 92  1  0  0  0  0
 25 26  2  0  0  0  0
 25 27  1  0  0  0  0
 27 28  1  0  0  0  0
 27 93  1  0  0  0  0
 28 29  1  0  0  0  0
 28 31  1  0  0  0  0
 28 94  1  6  0  0  0
 29 30  2  0  0  0  0
 29 37  1  0  0  0  0
 31 32  1  0  0  0  0
 31 95  1  0  0  0  0
 31 96  1  0  0  0  0
 32 33  1  0  0  0  0
 32 34  2  0  0  0  0
 33 35  2  0  0  0  0
 34 36  1  0  0  0  0
 34 97  1  0  0  0  0
 35 36  1  0  0  0  0
 35 98  1  0  0  0  0
 36 99  1  0  0  0  0
 37 38  1  0  0  0  0
 37100  1  0  0  0  0
 38 39  1  0  0  0  0
 38 41  1  0  0  0  0
 38101  1  1  0  0  0
 39 40  2  0  0  0  0
 39 45  1  0  0  0  0
 41 42  1  0  0  0  0
 41102  1  0  0  0  0
 41103  1  0  0  0  0
 42 43  1  0  0  0  0
 42 44  1  0  0  0  0
 42104  1  0  0  0  0
 43105  1  0  0  0  0
 43106  1  0  0  0  0
 43107  1  0  0  0  0
 44108  1  0  0  0  0
 44109  1  0  0  0  0
 44110  1  0  0  0  0
 45 46  1  0  0  0  0
 45111  1  0  0  0  0
 46 47  1  0  0  0  0
 46 49  1  0  0  0  0
 46112  1  1  0  0  0
 47 48  2  0  0  0  0
 47 51  1  0  0  0  0
 49 50  1  0  0  0  0
 49113  1  0  0  0  0
 49114  1  0  0  0  0
 50115  1  0  0  0  0
 51 52  1  0  0  0  0
 51116  1  0  0  0  0
 52 53  1  0  0  0  0
 52 55  1  0  0  0  0
 52117  1  6  0  0  0
 53 54  2  0  0  0  0
 53 59  1  0  0  0  0
 55 56  1  0  0  0  0
 55 57  1  0  0  0  0
 55118  1  1  0  0  0
 56 58  1  0  0  0  0
 56119  1  0  0  0  0
 56120  1  0  0  0  0
 57121  1  0  0  0  0
 57122  1  0  0  0  0
 57123  1  0  0  0  0
 58124  1  0  0  0  0
 58125  1  0  0  0  0
 58126  1  0  0  0  0
 59 60  1  0  0  0  0
 59127  1  0  0  0  0
 60 61  1  0  0  0  0
 60128  1  0  0  0  0
 60129  1  0  0  0  0
 61 62  2  0  0  0  0
 61 63  1  0  0  0  0
 63 64  1  0  0  0  0
 63130  1  0  0  0  0
 64 65  1  0  0  0  0
 64 67  1  0  0  0  0
 64131  1  1  0  0  0
 65 66  1  0  0  0  0
 65 70  2  0  0  0  0
 67 68  1  0  0  0  0
 67 69  1  0  0  0  0
 67132  1  1  0  0  0
 68133  1  0  0  0  0
 69134  1  0  0  0  0
 69135  1  0  0  0  0
 69136  1  0  0  0  0
M  CHG  2   1   1  66  -1
M  END
