4kmu_ligand
 OpenBabel08222323353D

128132  0  0  1  0  0  0  0  0999 V2000
 -113.1570   26.4420    8.4140 C   0  0  0  0  0  0  0  0  0  0  0  0
 -112.0110   26.1610    7.6560 C   0  0  0  0  0  0  0  0  0  0  0  0
 -110.7220   26.3310    8.1320 C   0  0  0  0  0  0  0  0  0  0  0  0
 -110.5060   26.8070    9.4110 C   0  0  0  0  0  0  0  0  0  0  0  0
 -111.5050   27.5780   11.5580 C   0  0  0  0  0  0  0  0  0  0  0  0
 -112.6880   27.8420   12.2940 C   0  0  0  0  0  0  0  0  0  0  0  0
 -113.9900   27.6890   11.8840 C   0  0  0  0  0  0  0  0  0  0  0  0
 -114.1500   27.2060   10.5610 C   0  0  0  0  0  0  0  0  0  0  0  0
 -112.9590   26.9190    9.7520 C   0  0  0  0  0  0  0  0  0  0  0  0
 -111.5950   27.0970   10.2340 C   0  0  0  0  0  0  0  0  0  0  0  0
 -110.4700   27.9030   12.4580 C   0  0  0  0  0  0  0  0  0  0  0  0
 -110.8310   28.5720   13.5880 C   0  0  2  0  0  0  0  0  0  0  0  0
 -110.0870   27.9080   14.7240 C   0  0  0  0  0  0  0  0  0  0  0  0
 -115.1840   27.9950   12.7500 C   0  0  0  0  0  0  0  0  0  0  0  0
 -113.1370   25.8740    5.3110 C   0  0  0  0  0  0  0  0  0  0  0  0
 -112.8440   25.2980    3.9340 C   0  0  1  0  0  0  0  0  0  0  0  0
 -112.0470   26.1860    3.1850 C   0  0  0  0  0  0  0  0  0  0  0  0
 -112.2850   27.7150    3.3180 C   0  0  0  0  0  0  0  0  0  0  0  0
 -111.5580   28.5950    2.4810 C   0  0  0  0  0  0  0  0  0  0  0  0
 -110.8010   29.8210    2.9660 C   0  0  1  0  0  0  0  0  0  0  0  0
 -110.9600   30.0580    4.4610 C   0  0  1  0  0  0  0  0  0  0  0  0
 -109.9870   31.0380    5.0560 C   0  0  2  0  0  0  0  0  0  0  0  0
 -110.6340   31.6020    6.2960 C   0  0  2  0  0  0  0  0  0  0  0  0
 -109.6980   31.7220    7.4680 C   0  0  2  0  0  0  0  0  0  0  0  0
 -110.3040   32.7430    8.4340 C   0  0  1  0  0  0  0  0  0  0  0  0
 -110.8190   32.0730    9.6950 C   0  0  1  0  0  0  0  0  0  0  0  0
 -110.3910   32.8070   10.9590 C   0  0  2  0  0  0  0  0  0  0  0  0
 -110.7820   32.0650   12.2190 C   0  0  0  0  0  0  0  0  0  0  0  0
 -110.7670   30.6630   12.2560 C   0  0  0  0  0  0  0  0  0  0  0  0
 -112.4090   23.8450    4.0370 C   0  0  0  0  0  0  0  0  0  0  0  0
 -109.3990   29.6180    2.4950 C   0  0  0  0  0  0  0  0  0  0  0  0
 -109.6030   32.1840    4.1530 C   0  0  0  0  0  0  0  0  0  0  0  0
 -108.2630   32.0730    7.0900 C   0  0  0  0  0  0  0  0  0  0  0  0
 -112.3170   31.9050    9.6320 C   0  0  0  0  0  0  0  0  0  0  0  0
 -109.2060   34.8330    7.7070 C   0  0  0  0  0  0  0  0  0  0  0  0
 -107.8490   35.3960    7.4190 C   0  0  0  0  0  0  0  0  0  0  0  0
 -111.9590   34.5560   11.7230 C   0  0  0  0  0  0  0  0  0  0  0  0
 -103.4190   25.5160    6.1440 C   0  0  0  0  0  0  0  0  0  0  0  0
 -105.6080   25.9440    7.3140 C   0  0  0  0  0  0  0  0  0  0  0  0
 -107.0230   26.3240    7.0090 C   0  0  0  0  0  0  0  0  0  0  0  0
 -107.0330   24.7850    5.0720 C   0  0  0  0  0  0  0  0  0  0  0  0
 -105.6130   24.4350    5.4970 C   0  0  0  0  0  0  0  0  0  0  0  0
 -109.6810   25.3780    7.5370 C   0  0  0  0  0  0  0  0  0  0  0  0
 -112.0260   25.6720    6.2710 N   0  0  0  0  0  0  0  0  0  0  0  0
 -108.9690   25.8550    6.5150 N   0  3  0  0  0  0  0  0  0  0  0  0
 -107.7070   25.3480    6.2190 N   0  3  2  0  0  0  0  0  0  0  0  0
 -104.9080   25.5260    6.1300 N   0  3  2  0  0  0  0  0  0  0  0  0
 -114.3990   26.2410    7.9090 O   0  0  0  0  0  0  0  0  0  0  0  0
 -115.4170   27.0030    9.9830 O   0  0  0  0  0  0  0  0  0  0  0  0
 -112.2320   28.3550   13.7070 O   0  0  0  0  0  0  0  0  0  0  0  0
 -109.3000   27.5970   12.2430 O   0  0  0  0  0  0  0  0  0  0  0  0
 -110.5390   29.9600   13.4570 O   0  0  0  0  0  0  0  0  0  0  0  0
 -110.8530   34.1200   10.9850 O   0  0  0  0  0  0  0  0  0  0  0  0
 -109.3790   33.7730    8.6350 O   0  0  0  0  0  0  0  0  0  0  0  0
 -110.0490   35.0390    6.8480 O   0  0  0  0  0  0  0  0  0  0  0  0
 -111.7030   30.7800    6.6320 O   0  0  0  0  0  0  0  0  0  0  0  0
 -112.2570   30.4910    4.7130 O   0  0  0  0  0  0  0  0  0  0  0  0
 -114.1760   26.4630    5.5830 O   0  0  0  0  0  0  0  0  0  0  0  0
 -109.2250   26.9650    9.8480 O   0  0  0  0  0  0  0  0  0  0  0  0
 -110.3400   28.4087   15.6702 H   0  0  0  0  0  0  0  0  0  0  0  0
 -109.0040   27.9841   14.5471 H   0  0  0  0  0  0  0  0  0  0  0  0
 -110.3756   26.8481   14.7815 H   0  0  0  0  0  0  0  0  0  0  0  0
 -114.8423   28.3551   13.7316 H   0  0  0  0  0  0  0  0  0  0  0  0
 -115.7842   27.0828   12.8827 H   0  0  0  0  0  0  0  0  0  0  0  0
 -115.7974   28.7706   12.2681 H   0  0  0  0  0  0  0  0  0  0  0  0
 -113.8058   25.2656    3.4012 H   0  0  0  0  0  0  0  0  0  0  0  0
 -112.1899   25.9297    2.1249 H   0  0  0  0  0  0  0  0  0  0  0  0
 -111.0014   25.9977    3.4701 H   0  0  0  0  0  0  0  0  0  0  0  0
 -112.0497   27.9894    4.3569 H   0  0  0  0  0  0  0  0  0  0  0  0
 -113.3530   27.8937    3.1244 H   0  0  0  0  0  0  0  0  0  0  0  0
 -112.2843   28.9691    1.7445 H   0  0  0  0  0  0  0  0  0  0  0  0
 -110.8101   27.9685    1.9729 H   0  0  0  0  0  0  0  0  0  0  0  0
 -111.2073   30.7096    2.4607 H   0  0  0  0  0  0  0  0  0  0  0  0
 -110.8068   29.0933    4.9668 H   0  0  0  0  0  0  0  0  0  0  0  0
 -109.0700   30.4953    5.3291 H   0  0  0  0  0  0  0  0  0  0  0  0
 -111.0130   32.6075    6.0607 H   0  0  0  0  0  0  0  0  0  0  0  0
 -109.6657   30.7459    7.9741 H   0  0  0  0  0  0  0  0  0  0  0  0
 -111.1794   33.1913    7.9414 H   0  0  0  0  0  0  0  0  0  0  0  0
 -110.3745   31.0677    9.7373 H   0  0  0  0  0  0  0  0  0  0  0  0
 -109.2921   32.8530   10.9421 H   0  0  0  0  0  0  0  0  0  0  0  0
 -111.8093   32.3751   12.4608 H   0  0  0  0  0  0  0  0  0  0  0  0
 -110.0996   32.4079   13.0106 H   0  0  0  0  0  0  0  0  0  0  0  0
 -109.9822   30.3424   11.5551 H   0  0  0  0  0  0  0  0  0  0  0  0
 -111.7480   30.3322   11.8843 H   0  0  0  0  0  0  0  0  0  0  0  0
 -113.1324   23.2884    4.6509 H   0  0  0  0  0  0  0  0  0  0  0  0
 -111.4145   23.7922    4.5040 H   0  0  0  0  0  0  0  0  0  0  0  0
 -112.3655   23.4030    3.0306 H   0  0  0  0  0  0  0  0  0  0  0  0
 -109.3975   29.4564    1.4069 H   0  0  0  0  0  0  0  0  0  0  0  0
 -108.9672   28.7395    2.9967 H   0  0  0  0  0  0  0  0  0  0  0  0
 -108.7992   30.5085    2.7342 H   0  0  0  0  0  0  0  0  0  0  0  0
 -109.1288   31.7900    3.2420 H   0  0  0  0  0  0  0  0  0  0  0  0
 -108.8966   32.8438    4.6780 H   0  0  0  0  0  0  0  0  0  0  0  0
 -110.5036   32.7538    3.8805 H   0  0  0  0  0  0  0  0  0  0  0  0
 -107.8703   31.3143    6.3971 H   0  0  0  0  0  0  0  0  0  0  0  0
 -107.6407   32.0985    7.9967 H   0  0  0  0  0  0  0  0  0  0  0  0
 -108.2427   33.0593    6.6035 H   0  0  0  0  0  0  0  0  0  0  0  0
 -112.5877   31.3724    8.7084 H   0  0  0  0  0  0  0  0  0  0  0  0
 -112.7976   32.8944    9.6389 H   0  0  0  0  0  0  0  0  0  0  0  0
 -112.6580   31.3256   10.5027 H   0  0  0  0  0  0  0  0  0  0  0  0
 -107.9369   36.2031    6.6768 H   0  0  0  0  0  0  0  0  0  0  0  0
 -107.1993   34.6021    7.0221 H   0  0  0  0  0  0  0  0  0  0  0  0
 -107.4138   35.7965    8.3464 H   0  0  0  0  0  0  0  0  0  0  0  0
 -112.1034   35.6349   11.5643 H   0  0  0  0  0  0  0  0  0  0  0  0
 -111.7859   34.3626   12.7919 H   0  0  0  0  0  0  0  0  0  0  0  0
 -112.8571   34.0134   11.3929 H   0  0  0  0  0  0  0  0  0  0  0  0
 -103.0512   26.4139    6.6622 H   0  0  0  0  0  0  0  0  0  0  0  0
 -103.0426   25.5091    5.1104 H   0  0  0  0  0  0  0  0  0  0  0  0
 -103.0633   24.6177    6.6698 H   0  0  0  0  0  0  0  0  0  0  0  0
 -105.6083   25.1173    8.0396 H   0  0  0  0  0  0  0  0  0  0  0  0
 -105.0902   26.8123    7.7476 H   0  0  0  0  0  0  0  0  0  0  0  0
 -107.0193   27.2779    6.4612 H   0  0  0  0  0  0  0  0  0  0  0  0
 -107.5647   26.4484    7.9582 H   0  0  0  0  0  0  0  0  0  0  0  0
 -107.5581   23.8786    4.7363 H   0  0  0  0  0  0  0  0  0  0  0  0
 -107.0091   25.5194    4.2534 H   0  0  0  0  0  0  0  0  0  0  0  0
 -105.0488   24.1296    4.6034 H   0  0  0  0  0  0  0  0  0  0  0  0
 -105.6602   23.5950    6.2057 H   0  0  0  0  0  0  0  0  0  0  0  0
 -110.2087   24.4780    7.1886 H   0  0  0  0  0  0  0  0  0  0  0  0
 -108.9785   25.1042    8.3379 H   0  0  0  0  0  0  0  0  0  0  0  0
 -111.2259   25.1643    5.9516 H   0  0  0  0  0  0  0  0  0  0  0  0
 -108.8483   26.8410    6.6859 H   0  0  0  0  0  0  0  0  0  0  0  0
 -109.5311   25.7236    5.6887 H   0  0  0  0  0  0  0  0  0  0  0  0
 -107.7016   24.5108    6.7804 H   0  0  0  0  0  0  0  0  0  0  0  0
 -105.0824   26.2899    5.4959 H   0  0  0  0  0  0  0  0  0  0  0  0
 -114.3292   25.9261    7.0155 H   0  0  0  0  0  0  0  0  0  0  0  0
 -115.5068   26.0912    9.7317 H   0  0  0  0  0  0  0  0  0  0  0  0
 -112.2908   30.7074    5.8893 H   0  0  0  0  0  0  0  0  0  0  0  0
 -112.3941   30.5474    5.6514 H   0  0  0  0  0  0  0  0  0  0  0  0
 -109.0796   26.4110   10.6059 H   0  0  0  0  0  0  0  0  0  0  0  0
  1  9  1  0  0  0  0
  1 48  1  0  0  0  0
  2  1  2  0  0  0  0
  2 44  1  0  0  0  0
  3  2  1  0  0  0  0
  3  4  2  0  0  0  0
  4 10  1  0  0  0  0
  4 59  1  0  0  0  0
  5  6  2  0  0  0  0
  5 11  1  0  0  0  0
  6  7  1  0  0  0  0
  6 50  1  0  0  0  0
  7 14  1  0  0  0  0
  8  7  2  0  0  0  0
  8 49  1  0  0  0  0
  9  8  1  0  0  0  0
 10  5  1  0  0  0  0
 10  9  2  0  0  0  0
 11 12  1  0  0  0  0
 11 51  2  0  0  0  0
 12 13  1  1  0  0  0
 12 50  1  0  0  0  0
 12 52  1  0  0  0  0
 13 60  1  0  0  0  0
 13 61  1  0  0  0  0
 13 62  1  0  0  0  0
 14 63  1  0  0  0  0
 14 64  1  0  0  0  0
 14 65  1  0  0  0  0
 15 16  1  0  0  0  0
 15 58  2  0  0  0  0
 16 17  1  0  0  0  0
 16 30  1  0  0  0  0
 16 66  1  6  0  0  0
 17 18  1  0  0  0  0
 17 67  1  0  0  0  0
 17 68  1  0  0  0  0
 18 19  1  0  0  0  0
 18 69  1  0  0  0  0
 18 70  1  0  0  0  0
 19 20  1  0  0  0  0
 19 71  1  0  0  0  0
 19 72  1  0  0  0  0
 20 21  1  0  0  0  0
 20 31  1  0  0  0  0
 20 73  1  6  0  0  0
 21 22  1  0  0  0  0
 21 57  1  0  0  0  0
 21 74  1  1  0  0  0
 22 23  1  0  0  0  0
 22 32  1  0  0  0  0
 22 75  1  1  0  0  0
 23 24  1  0  0  0  0
 23 56  1  0  0  0  0
 23 76  1  6  0  0  0
 24 33  1  0  0  0  0
 24 77  1  1  0  0  0
 25 24  1  0  0  0  0
 25 54  1  0  0  0  0
 25 78  1  6  0  0  0
 26 25  1  0  0  0  0
 26 34  1  0  0  0  0
 26 79  1  1  0  0  0
 27 26  1  0  0  0  0
 27 53  1  0  0  0  0
 27 80  1  6  0  0  0
 28 27  1  0  0  0  0
 28 81  1  0  0  0  0
 28 82  1  0  0  0  0
 29 28  1  0  0  0  0
 29 83  1  0  0  0  0
 29 84  1  0  0  0  0
 30 85  1  0  0  0  0
 30 86  1  0  0  0  0
 30 87  1  0  0  0  0
 31 88  1  0  0  0  0
 31 89  1  0  0  0  0
 31 90  1  0  0  0  0
 32 91  1  0  0  0  0
 32 92  1  0  0  0  0
 32 93  1  0  0  0  0
 33 94  1  0  0  0  0
 33 95  1  0  0  0  0
 33 96  1  0  0  0  0
 34 97  1  0  0  0  0
 34 98  1  0  0  0  0
 34 99  1  0  0  0  0
 35 36  1  0  0  0  0
 35 55  2  0  0  0  0
 36100  1  0  0  0  0
 36101  1  0  0  0  0
 36102  1  0  0  0  0
 37103  1  0  0  0  0
 37104  1  0  0  0  0
 37105  1  0  0  0  0
 38106  1  0  0  0  0
 38107  1  0  0  0  0
 38108  1  0  0  0  0
 39 47  1  0  0  0  0
 39109  1  0  0  0  0
 39110  1  0  0  0  0
 40 39  1  0  0  0  0
 40111  1  0  0  0  0
 40112  1  0  0  0  0
 41 42  1  0  0  0  0
 41113  1  0  0  0  0
 41114  1  0  0  0  0
 42 47  1  0  0  0  0
 42115  1  0  0  0  0
 42116  1  0  0  0  0
 43  3  1  0  0  0  0
 43117  1  0  0  0  0
 43118  1  0  0  0  0
 44 15  1  0  0  0  0
 44119  1  0  0  0  0
 45 43  1  0  0  0  0
 45 46  1  0  0  0  0
 45120  1  0  0  0  0
 45121  1  0  0  0  0
 46 40  1  0  0  0  0
 46 41  1  0  0  0  0
 46122  1  1  0  0  0
 47 38  1  0  0  0  0
 47123  1  6  0  0  0
 48124  1  0  0  0  0
 49125  1  0  0  0  0
 52 29  1  0  0  0  0
 53 37  1  0  0  0  0
 54 35  1  0  0  0  0
 56126  1  0  0  0  0
 57127  1  0  0  0  0
 59128  1  0  0  0  0
M  CHG  3  45   1  46   1  47   1
M  END
