4kn2_ligand
 OpenBabel08222323353D

 51 53  0  0  1  0  0  0  0  0999 V2000
   39.6400    5.0370   39.2230 C   0  0  0  0  0  0  0  0  0  0  0  0
   39.0470    4.5260   40.3700 C   0  0  0  0  0  0  0  0  0  0  0  0
   39.8080    3.8550   41.3120 C   0  0  0  0  0  0  0  0  0  0  0  0
   41.1670    3.7000   41.0880 C   0  0  0  0  0  0  0  0  0  0  0  0
   41.7760    4.2110   39.9460 C   0  0  0  0  0  0  0  0  0  0  0  0
   41.0050    4.8850   39.0030 C   0  0  0  0  0  0  0  0  0  0  0  0
   38.7360    5.7610   38.2360 C   0  0  0  0  0  0  0  0  0  0  0  0
   39.2340    6.5250   37.0470 C   0  0  0  0  0  0  0  0  0  0  0  0
   38.1140    7.2870   36.3320 C   0  0  0  0  0  0  0  0  0  0  0  0
   37.2830    6.7890   35.3380 C   0  0  0  0  0  0  0  0  0  0  0  0
   36.4310    7.7730   34.9990 N   0  0  0  0  0  0  0  0  0  0  0  0
   36.6800    8.8700   35.7350 C   0  0  0  0  0  0  0  0  0  0  0  0
   37.7300    8.6000   36.5900 C   0  0  0  0  0  0  0  0  0  0  0  0
   38.2190    9.6460   37.5250 C   0  0  0  0  0  0  0  0  0  0  0  0
   39.1460    9.3920   38.2780 O   0  0  0  0  0  0  0  0  0  0  0  0
   37.6080   10.9330   37.5480 N   0  0  0  0  0  0  0  0  0  0  0  0
   36.5130   11.1930   36.6620 C   0  0  2  0  0  3  0  0  0  0  0  0
   36.0550   10.1700   35.7570 N   0  0  0  0  0  0  0  0  0  0  0  0
   35.8690   12.4780   36.6470 N   0  0  0  0  0  0  0  0  0  0  0  0
   41.9770    2.9500   42.1260 C   0  0  0  0  0  0  0  0  0  0  0  0
   42.6830    2.0150   41.7770 O   0  0  0  0  0  0  0  0  0  0  0  0
   41.8530    3.3630   43.5090 N   0  0  0  0  0  0  0  0  0  0  0  0
   42.6180    2.7350   44.5680 C   0  0  1  0  0  0  0  0  0  0  0  0
   43.6270    3.6860   45.1560 C   0  0  0  0  0  0  0  0  0  0  0  0
   44.2970    4.6320   44.1910 C   0  0  0  0  0  0  0  0  0  0  0  0
   45.5340    5.3550   44.6360 C   0  0  0  0  0  0  0  0  0  0  0  0
   46.5990    4.7080   44.8540 O   0  5  0  0  0  0  0  0  0  0  0  0
   45.5100    6.6090   44.7850 O   0  0  0  0  0  0  0  0  0  0  0  0
   41.6350    2.2920   45.6070 C   0  0  0  0  0  0  0  0  0  0  0  0
   40.6670    1.5540   45.2460 O   0  5  0  0  0  0  0  0  0  0  0  0
   41.7780    2.6550   46.8220 O   0  0  0  0  0  0  0  0  0  0  0  0
   37.9822    4.6532   40.5287 H   0  0  0  0  0  0  0  0  0  0  0  0
   39.3486    3.4575   42.2098 H   0  0  0  0  0  0  0  0  0  0  0  0
   42.8416    4.0853   39.7920 H   0  0  0  0  0  0  0  0  0  0  0  0
   41.4635    5.2871   38.1068 H   0  0  0  0  0  0  0  0  0  0  0  0
   38.1597    6.4825   38.8337 H   0  0  0  0  0  0  0  0  0  0  0  0
   38.0582    4.9934   37.8343 H   0  0  0  0  0  0  0  0  0  0  0  0
   39.6888    5.8178   36.3378 H   0  0  0  0  0  0  0  0  0  0  0  0
   39.9933    7.2464   37.3833 H   0  0  0  0  0  0  0  0  0  0  0  0
   37.3149    5.7874   34.9117 H   0  0  0  0  0  0  0  0  0  0  0  0
   35.6961    7.6972   34.2813 H   0  0  0  0  0  0  0  0  0  0  0  0
   37.9377   11.6419   38.1715 H   0  0  0  0  0  0  0  0  0  0  0  0
   35.2720   10.3691   35.1181 H   0  0  0  0  0  0  0  0  0  0  0  0
   36.1849   13.2199   37.2879 H   0  0  0  0  0  0  0  0  0  0  0  0
   35.0917   12.6569   35.9953 H   0  0  0  0  0  0  0  0  0  0  0  0
   41.2212    4.1030   43.7398 H   0  0  0  0  0  0  0  0  0  0  0  0
   43.1504    1.8600   44.1668 H   0  0  0  0  0  0  0  0  0  0  0  0
   44.4133    3.0852   45.6363 H   0  0  0  0  0  0  0  0  0  0  0  0
   43.1126    4.2920   45.9163 H   0  0  0  0  0  0  0  0  0  0  0  0
   43.5548    5.3968   43.9186 H   0  0  0  0  0  0  0  0  0  0  0  0
   44.5662    4.0480   43.2986 H   0  0  0  0  0  0  0  0  0  0  0  0
  1  2  2  0  0  0  0
  1  6  1  0  0  0  0
  1  7  1  0  0  0  0
  2  3  1  0  0  0  0
  2 32  1  0  0  0  0
  3  4  2  0  0  0  0
  3 33  1  0  0  0  0
  4  5  1  0  0  0  0
  4 20  1  0  0  0  0
  5  6  2  0  0  0  0
  5 34  1  0  0  0  0
  6 35  1  0  0  0  0
  7  8  1  0  0  0  0
  7 36  1  0  0  0  0
  7 37  1  0  0  0  0
  8  9  1  0  0  0  0
  8 38  1  0  0  0  0
  8 39  1  0  0  0  0
  9 10  2  0  0  0  0
  9 13  1  0  0  0  0
 10 11  1  0  0  0  0
 10 40  1  0  0  0  0
 11 12  1  0  0  0  0
 11 41  1  0  0  0  0
 12 13  2  0  0  0  0
 12 18  1  0  0  0  0
 13 14  1  0  0  0  0
 14 15  2  0  0  0  0
 14 16  1  0  0  0  0
 16 17  1  0  0  0  0
 16 42  1  0  0  0  0
 17 18  1  0  0  0  0
 17 19  1  6  0  0  0
 18 43  1  0  0  0  0
 19 44  1  0  0  0  0
 19 45  1  0  0  0  0
 20 21  2  0  0  0  0
 20 22  1  0  0  0  0
 22 23  1  0  0  0  0
 22 46  1  0  0  0  0
 23 24  1  0  0  0  0
 23 29  1  0  0  0  0
 23 47  1  6  0  0  0
 24 25  1  0  0  0  0
 24 48  1  0  0  0  0
 24 49  1  0  0  0  0
 25 26  1  0  0  0  0
 25 50  1  0  0  0  0
 25 51  1  0  0  0  0
 26 27  1  0  0  0  0
 26 28  2  0  0  0  0
 29 30  1  0  0  0  0
 29 31  2  0  0  0  0
M  CHG  2  27  -1  30  -1
M  END
