4kn4_ligand
 OpenBabel08222323353D

133138  0  0  1  0  0  0  0  0999 V2000
 -113.3930   26.6490    9.2320 C   0  0  0  0  0  0  0  0  0  0  0  0
 -112.2230   26.3250    8.4650 C   0  0  0  0  0  0  0  0  0  0  0  0
 -110.9560   26.7100    8.8980 C   0  0  0  0  0  0  0  0  0  0  0  0
 -110.7610   27.4210   10.0990 C   0  0  0  0  0  0  0  0  0  0  0  0
 -111.9680   28.5240   12.2710 C   0  0  0  0  0  0  0  0  0  0  0  0
 -113.0680   28.8430   12.8690 C   0  0  0  0  0  0  0  0  0  0  0  0
 -114.5380   28.5120   12.3880 C   0  0  0  0  0  0  0  0  0  0  0  0
 -114.4260   27.6800   11.2190 C   0  0  0  0  0  0  0  0  0  0  0  0
 -113.2450   27.4030   10.5100 C   0  0  0  0  0  0  0  0  0  0  0  0
 -111.9800   27.7770   10.9460 C   0  0  0  0  0  0  0  0  0  0  0  0
 -111.0260   28.9660   13.0070 C   0  0  0  0  0  0  0  0  0  0  0  0
 -111.3130   29.7040   14.0800 C   0  0  2  0  0  0  0  0  0  0  0  0
 -110.4890   29.5170   15.3690 C   0  0  0  0  0  0  0  0  0  0  0  0
 -115.7630   28.5560   13.2990 C   0  0  0  0  0  0  0  0  0  0  0  0
 -112.7460   26.3840    6.0440 C   0  0  0  0  0  0  0  0  0  0  0  0
 -112.9650   25.6980    4.6570 C   0  0  1  0  0  0  0  0  0  0  0  0
 -113.5090   26.5520    3.4990 C   0  0  0  0  0  0  0  0  0  0  0  0
 -112.5270   27.4250    2.7140 C   0  0  0  0  0  0  0  0  0  0  0  0
 -111.1770   27.7230    3.3780 C   0  0  0  0  0  0  0  0  0  0  0  0
 -110.7280   29.1670    3.1400 C   0  0  1  0  0  0  0  0  0  0  0  0
 -111.0110   30.0410    4.3910 C   0  0  1  0  0  0  0  0  0  0  0  0
 -109.9530   31.1150    4.7520 C   0  0  2  0  0  0  0  0  0  0  0  0
 -110.4910   31.9640    5.9330 C   0  0  2  0  0  0  0  0  0  0  0  0
 -109.7340   31.7630    7.2760 C   0  0  2  0  0  0  0  0  0  0  0  0
 -110.2070   32.8300    8.2810 C   0  0  1  0  0  0  0  0  0  0  0  0
 -110.6070   32.1670    9.6070 C   0  0  1  0  0  0  0  0  0  0  0  0
 -110.5450   33.2160   10.7340 C   0  0  2  0  0  0  0  0  0  0  0  0
 -111.0910   32.7190   12.0580 C   0  0  0  0  0  0  0  0  0  0  0  0
 -110.8720   31.3920   12.3990 C   0  0  0  0  0  0  0  0  0  0  0  0
 -112.2710   24.3550    4.4220 C   0  0  0  0  0  0  0  0  0  0  0  0
 -109.2770   29.1070    2.7280 C   0  0  0  0  0  0  0  0  0  0  0  0
 -109.6070   32.0110    3.5880 C   0  0  0  0  0  0  0  0  0  0  0  0
 -108.2290   31.8430    7.1360 C   0  0  0  0  0  0  0  0  0  0  0  0
 -111.9790   31.6620    9.4300 C   0  0  0  0  0  0  0  0  0  0  0  0
 -109.2180   34.9800    7.6560 C   0  0  0  0  0  0  0  0  0  0  0  0
 -107.8900   35.7350    7.4280 C   0  0  0  0  0  0  0  0  0  0  0  0
 -110.9620   35.4890   11.1600 C   0  0  0  0  0  0  0  0  0  0  0  0
 -112.3800   25.5990    7.2300 N   0  0  0  0  0  0  0  0  0  0  0  0
 -109.8840   26.3320    8.0520 O   0  0  0  0  0  0  0  0  0  0  0  0
 -108.5820   26.7010    8.4550 C   0  0  0  0  0  0  0  0  0  0  0  0
 -108.3720   27.4060    9.6390 C   0  0  0  0  0  0  0  0  0  0  0  0
 -109.4580   27.7490   10.4280 N   0  0  0  0  0  0  0  0  0  0  0  0
 -114.4840   26.2960    8.8130 O   0  0  0  0  0  0  0  0  0  0  0  0
 -115.6460   27.1680   10.6940 O   0  0  0  0  0  0  0  0  0  0  0  0
 -112.8140   29.6260   14.2430 O   0  0  0  0  0  0  0  0  0  0  0  0
 -109.8640   28.7300   12.7750 O   0  0  0  0  0  0  0  0  0  0  0  0
 -111.1090   31.0210   13.7650 O   0  0  0  0  0  0  0  0  0  0  0  0
 -111.3200   34.3350   10.4110 O   0  0  0  0  0  0  0  0  0  0  0  0
 -109.2190   33.8210    8.4920 O   0  0  0  0  0  0  0  0  0  0  0  0
 -110.2580   35.5290    7.3820 O   0  0  0  0  0  0  0  0  0  0  0  0
 -111.8220   31.6230    6.1330 O   0  0  0  0  0  0  0  0  0  0  0  0
 -112.2370   30.6760    4.2110 O   0  0  0  0  0  0  0  0  0  0  0  0
 -112.8590   27.5880    6.1670 O   0  0  0  0  0  0  0  0  0  0  0  0
 -107.5590   26.3120    7.5950 C   0  0  0  0  0  0  0  0  0  0  0  0
 -106.2420   26.6330    7.9140 C   0  0  0  0  0  0  0  0  0  0  0  0
 -105.9640   27.3420    9.0910 C   0  0  0  0  0  0  0  0  0  0  0  0
 -107.0040   27.7270    9.9510 C   0  0  0  0  0  0  0  0  0  0  0  0
 -106.7260   28.4620   11.1670 O   0  0  0  0  0  0  0  0  0  0  0  0
 -105.3310   28.7310   11.5300 C   0  0  0  0  0  0  0  0  0  0  0  0
 -105.2660   29.1830   12.9850 C   0  0  0  0  0  0  0  0  0  0  0  0
 -105.6520   28.0880   13.8910 N   0  3  0  0  0  0  0  0  0  0  0  0
 -105.0600   28.3430   15.1830 C   0  0  0  0  0  0  0  0  0  0  0  0
 -105.2630   27.1560   16.1370 C   0  0  0  0  0  0  0  0  0  0  0  0
 -107.0860   28.0030   14.0320 C   0  0  0  0  0  0  0  0  0  0  0  0
 -107.5670   26.6250   13.5550 C   0  0  0  0  0  0  0  0  0  0  0  0
 -110.8614   30.2021   16.1448 H   0  0  0  0  0  0  0  0  0  0  0  0
 -109.4310   29.7367   15.1630 H   0  0  0  0  0  0  0  0  0  0  0  0
 -110.5865   28.4788   15.7192 H   0  0  0  0  0  0  0  0  0  0  0  0
 -115.5872   29.2720   14.1154 H   0  0  0  0  0  0  0  0  0  0  0  0
 -115.9425   27.5560   13.7206 H   0  0  0  0  0  0  0  0  0  0  0  0
 -116.6415   28.8718   12.7172 H   0  0  0  0  0  0  0  0  0  0  0  0
 -113.9405   25.2561    4.9082 H   0  0  0  0  0  0  0  0  0  0  0  0
 -114.2740   27.2210    3.9199 H   0  0  0  0  0  0  0  0  0  0  0  0
 -113.9786   25.8642    2.7804 H   0  0  0  0  0  0  0  0  0  0  0  0
 -113.0212   28.3883    2.5198 H   0  0  0  0  0  0  0  0  0  0  0  0
 -112.3226   26.9186    1.7591 H   0  0  0  0  0  0  0  0  0  0  0  0
 -110.4190   27.0424    2.9631 H   0  0  0  0  0  0  0  0  0  0  0  0
 -111.2686   27.5534    4.4610 H   0  0  0  0  0  0  0  0  0  0  0  0
 -111.3056   29.5896    2.3046 H   0  0  0  0  0  0  0  0  0  0  0  0
 -111.0867   29.3598    5.2514 H   0  0  0  0  0  0  0  0  0  0  0  0
 -109.0343   30.6016    5.0719 H   0  0  0  0  0  0  0  0  0  0  0  0
 -110.4204   33.0257    5.6541 H   0  0  0  0  0  0  0  0  0  0  0  0
 -109.9880   30.7664    7.6663 H   0  0  0  0  0  0  0  0  0  0  0  0
 -111.0963   33.3230    7.8614 H   0  0  0  0  0  0  0  0  0  0  0  0
 -109.9266   31.3349    9.8408 H   0  0  0  0  0  0  0  0  0  0  0  0
 -109.4948   33.5157   10.8657 H   0  0  0  0  0  0  0  0  0  0  0  0
 -112.1795   32.8766   12.0422 H   0  0  0  0  0  0  0  0  0  0  0  0
 -110.6423   33.3377   12.8491 H   0  0  0  0  0  0  0  0  0  0  0  0
 -109.8215   31.1599   12.1700 H   0  0  0  0  0  0  0  0  0  0  0  0
 -111.5296   30.7750   11.7691 H   0  0  0  0  0  0  0  0  0  0  0  0
 -111.9672   23.9253    5.3880 H   0  0  0  0  0  0  0  0  0  0  0  0
 -111.3819   24.5069    3.7924 H   0  0  0  0  0  0  0  0  0  0  0  0
 -112.9649   23.6671    3.9168 H   0  0  0  0  0  0  0  0  0  0  0  0
 -109.1747   28.4686    1.8380 H   0  0  0  0  0  0  0  0  0  0  0  0
 -108.6792   28.6877    3.5507 H   0  0  0  0  0  0  0  0  0  0  0  0
 -108.9198   30.1209    2.4949 H   0  0  0  0  0  0  0  0  0  0  0  0
 -109.2266   31.4005    2.7558 H   0  0  0  0  0  0  0  0  0  0  0  0
 -108.8354   32.7316    3.8967 H   0  0  0  0  0  0  0  0  0  0  0  0
 -110.5068   32.5539    3.2630 H   0  0  0  0  0  0  0  0  0  0  0  0
 -107.8865   31.0824    6.4189 H   0  0  0  0  0  0  0  0  0  0  0  0
 -107.7596   31.6622    8.1142 H   0  0  0  0  0  0  0  0  0  0  0  0
 -107.9471   32.8424    6.7731 H   0  0  0  0  0  0  0  0  0  0  0  0
 -111.9938   30.9166    8.6212 H   0  0  0  0  0  0  0  0  0  0  0  0
 -112.6466   32.4971    9.1712 H   0  0  0  0  0  0  0  0  0  0  0  0
 -112.3214   31.1950   10.3653 H   0  0  0  0  0  0  0  0  0  0  0  0
 -108.0663   36.5951    6.7654 H   0  0  0  0  0  0  0  0  0  0  0  0
 -107.1584   35.0579    6.9630 H   0  0  0  0  0  0  0  0  0  0  0  0
 -107.4995   36.0898    8.3932 H   0  0  0  0  0  0  0  0  0  0  0  0
 -111.6031   36.3322   10.8632 H   0  0  0  0  0  0  0  0  0  0  0  0
 -109.9096   35.7417   10.9636 H   0  0  0  0  0  0  0  0  0  0  0  0
 -111.0964   35.2861   12.2327 H   0  0  0  0  0  0  0  0  0  0  0  0
 -112.2463   24.6091    7.1829 H   0  0  0  0  0  0  0  0  0  0  0  0
 -115.7876   27.5207    9.8234 H   0  0  0  0  0  0  0  0  0  0  0  0
 -112.3028   31.7393    5.3220 H   0  0  0  0  0  0  0  0  0  0  0  0
 -112.4837   31.1193    5.0142 H   0  0  0  0  0  0  0  0  0  0  0  0
 -107.7850   25.7651    6.6868 H   0  0  0  0  0  0  0  0  0  0  0  0
 -105.4347   26.3357    7.2545 H   0  0  0  0  0  0  0  0  0  0  0  0
 -104.9392   27.5944    9.3384 H   0  0  0  0  0  0  0  0  0  0  0  0
 -104.9288   29.5229   10.8811 H   0  0  0  0  0  0  0  0  0  0  0  0
 -104.7353   27.8151   11.4030 H   0  0  0  0  0  0  0  0  0  0  0  0
 -105.9524   30.0301   13.1304 H   0  0  0  0  0  0  0  0  0  0  0  0
 -104.2387   29.4991   13.2188 H   0  0  0  0  0  0  0  0  0  0  0  0
 -105.3052   27.2153   13.5248 H   0  0  0  0  0  0  0  0  0  0  0  0
 -105.5272   29.2376   15.6205 H   0  0  0  0  0  0  0  0  0  0  0  0
 -103.9817   28.5182   15.0543 H   0  0  0  0  0  0  0  0  0  0  0  0
 -104.8010   27.3836   17.1090 H   0  0  0  0  0  0  0  0  0  0  0  0
 -104.7939   26.2576   15.7095 H   0  0  0  0  0  0  0  0  0  0  0  0
 -106.3394   26.9769   16.2757 H   0  0  0  0  0  0  0  0  0  0  0  0
 -107.5612   28.7875   13.4248 H   0  0  0  0  0  0  0  0  0  0  0  0
 -107.3593   28.1411   15.0885 H   0  0  0  0  0  0  0  0  0  0  0  0
 -108.6598   26.5607   13.6626 H   0  0  0  0  0  0  0  0  0  0  0  0
 -107.0920   25.8404   14.1622 H   0  0  0  0  0  0  0  0  0  0  0  0
 -107.2939   26.4868   12.4985 H   0  0  0  0  0  0  0  0  0  0  0  0
  1  2  1  0  0  0  0
  1 43  2  0  0  0  0
  3  2  2  0  0  0  0
  3 39  1  0  0  0  0
  4  3  1  0  0  0  0
  4 42  2  0  0  0  0
  5 10  1  0  0  0  0
  6  5  2  0  0  0  0
  6  7  1  0  0  0  0
  7  8  2  0  0  0  0
  7 14  1  0  0  0  0
  8  9  1  0  0  0  0
  8 44  1  0  0  0  0
  9  1  1  0  0  0  0
 10  4  1  0  0  0  0
 10  9  2  0  0  0  0
 11  5  1  0  0  0  0
 11 46  2  0  0  0  0
 12 11  1  0  0  0  0
 12 13  1  1  0  0  0
 12 45  1  0  0  0  0
 13 66  1  0  0  0  0
 13 67  1  0  0  0  0
 13 68  1  0  0  0  0
 14 69  1  0  0  0  0
 14 70  1  0  0  0  0
 14 71  1  0  0  0  0
 15 38  1  0  0  0  0
 15 53  2  0  0  0  0
 16 15  1  0  0  0  0
 16 30  1  0  0  0  0
 16 72  1  1  0  0  0
 17 16  1  0  0  0  0
 17 73  1  0  0  0  0
 17 74  1  0  0  0  0
 18 17  1  0  0  0  0
 18 75  1  0  0  0  0
 18 76  1  0  0  0  0
 19 18  1  0  0  0  0
 19 77  1  0  0  0  0
 19 78  1  0  0  0  0
 20 19  1  0  0  0  0
 20 31  1  0  0  0  0
 20 79  1  6  0  0  0
 21 20  1  0  0  0  0
 21 52  1  0  0  0  0
 21 80  1  1  0  0  0
 22 21  1  0  0  0  0
 22 32  1  0  0  0  0
 22 81  1  1  0  0  0
 23 22  1  0  0  0  0
 23 51  1  0  0  0  0
 23 82  1  6  0  0  0
 24 23  1  0  0  0  0
 24 33  1  0  0  0  0
 24 83  1  1  0  0  0
 25 24  1  0  0  0  0
 25 26  1  0  0  0  0
 25 84  1  6  0  0  0
 26 27  1  0  0  0  0
 26 34  1  0  0  0  0
 26 85  1  1  0  0  0
 27 28  1  0  0  0  0
 27 48  1  0  0  0  0
 27 86  1  1  0  0  0
 28 29  1  0  0  0  0
 28 87  1  0  0  0  0
 28 88  1  0  0  0  0
 29 47  1  0  0  0  0
 29 89  1  0  0  0  0
 29 90  1  0  0  0  0
 30 91  1  0  0  0  0
 30 92  1  0  0  0  0
 30 93  1  0  0  0  0
 31 94  1  0  0  0  0
 31 95  1  0  0  0  0
 31 96  1  0  0  0  0
 32 97  1  0  0  0  0
 32 98  1  0  0  0  0
 32 99  1  0  0  0  0
 33100  1  0  0  0  0
 33101  1  0  0  0  0
 33102  1  0  0  0  0
 34103  1  0  0  0  0
 34104  1  0  0  0  0
 34105  1  0  0  0  0
 35 36  1  0  0  0  0
 35 49  1  0  0  0  0
 35 50  2  0  0  0  0
 36106  1  0  0  0  0
 36107  1  0  0  0  0
 36108  1  0  0  0  0
 37109  1  0  0  0  0
 37110  1  0  0  0  0
 37111  1  0  0  0  0
 38  2  1  0  0  0  0
 38112  1  0  0  0  0
 39 40  1  0  0  0  0
 40 41  2  0  0  0  0
 40 54  1  0  0  0  0
 41 42  1  0  0  0  0
 41 57  1  0  0  0  0
 44113  1  0  0  0  0
 45  6  1  0  0  0  0
 47 12  1  0  0  0  0
 48 37  1  0  0  0  0
 49 25  1  0  0  0  0
 51114  1  0  0  0  0
 52115  1  0  0  0  0
 54 55  2  0  0  0  0
 54116  1  0  0  0  0
 55 56  1  0  0  0  0
 55117  1  0  0  0  0
 56 57  2  0  0  0  0
 56118  1  0  0  0  0
 57 58  1  0  0  0  0
 58 59  1  0  0  0  0
 59 60  1  0  0  0  0
 59119  1  0  0  0  0
 59120  1  0  0  0  0
 60 61  1  0  0  0  0
 60121  1  0  0  0  0
 60122  1  0  0  0  0
 61 62  1  0  0  0  0
 61 64  1  0  0  0  0
 61123  1  0  0  0  0
 62 63  1  0  0  0  0
 62124  1  0  0  0  0
 62125  1  0  0  0  0
 63126  1  0  0  0  0
 63127  1  0  0  0  0
 63128  1  0  0  0  0
 64 65  1  0  0  0  0
 64129  1  0  0  0  0
 64130  1  0  0  0  0
 65131  1  0  0  0  0
 65132  1  0  0  0  0
 65133  1  0  0  0  0
M  CHG  1  61   1
M  END
