4kn7_ligand
 OpenBabel08222323353D

153160  0  0  1  0  0  0  0  0999 V2000
 -113.9050   26.5700    8.7200 C   0  0  0  0  0  0  0  0  0  0  0  0
 -112.6540   26.3210    7.9610 C   0  0  0  0  0  0  0  0  0  0  0  0
 -111.4350   26.6930    8.4900 C   0  0  0  0  0  0  0  0  0  0  0  0
 -111.3630   27.3590    9.8500 C   0  0  0  0  0  0  0  0  0  0  0  0
 -112.7680   28.2210   11.8990 C   0  0  0  0  0  0  0  0  0  0  0  0
 -113.9930   28.4080   12.5190 C   0  0  0  0  0  0  0  0  0  0  0  0
 -115.2480   28.0190   11.9640 C   0  0  0  0  0  0  0  0  0  0  0  0
 -115.1410   27.4150   10.6980 C   0  0  0  0  0  0  0  0  0  0  0  0
 -113.8650   27.2240   10.0570 C   0  0  0  0  0  0  0  0  0  0  0  0
 -112.6240   27.6200   10.6310 C   0  0  0  0  0  0  0  0  0  0  0  0
 -111.9020   28.7630   12.8680 C   0  0  0  0  0  0  0  0  0  0  0  0
 -112.5350   29.5890   13.7850 C   0  0  2  0  0  0  0  0  0  0  0  0
 -111.8670   29.4610   15.1450 C   0  0  0  0  0  0  0  0  0  0  0  0
 -116.6030   28.2450   12.6910 C   0  0  0  0  0  0  0  0  0  0  0  0
 -113.2720   26.4190    5.5310 C   0  0  0  0  0  0  0  0  0  0  0  0
 -113.3870   25.7680    4.1860 C   0  0  1  0  0  0  0  0  0  0  0  0
 -113.7430   26.5750    3.1200 C   0  0  0  0  0  0  0  0  0  0  0  0
 -112.6410   27.2990    2.4040 C   0  0  0  0  0  0  0  0  0  0  0  0
 -111.6300   27.8730    3.1980 C   0  0  0  0  0  0  0  0  0  0  0  0
 -111.1520   29.2940    2.9730 C   0  0  1  0  0  0  0  0  0  0  0  0
 -111.4600   30.0670    4.2380 C   0  0  1  0  0  0  0  0  0  0  0  0
 -110.4620   31.1430    4.6680 C   0  0  2  0  0  0  0  0  0  0  0  0
 -111.0470   31.9240    5.8450 C   0  0  2  0  0  0  0  0  0  0  0  0
 -110.2730   31.8990    7.1450 C   0  0  2  0  0  0  0  0  0  0  0  0
 -110.8550   32.9490    8.1040 C   0  0  1  0  0  0  0  0  0  0  0  0
 -111.4810   32.3670    9.3710 C   0  0  1  0  0  0  0  0  0  0  0  0
 -111.2650   33.2620   10.5820 C   0  0  2  0  0  0  0  0  0  0  0  0
 -111.9580   32.7330   11.8200 C   0  0  0  0  0  0  0  0  0  0  0  0
 -112.0030   31.3640   12.1090 C   0  0  0  0  0  0  0  0  0  0  0  0
 -112.6360   24.5110    3.9130 C   0  0  0  0  0  0  0  0  0  0  0  0
 -109.7260   29.1870    2.5610 C   0  0  0  0  0  0  0  0  0  0  0  0
 -110.1640   32.0910    3.5760 C   0  0  0  0  0  0  0  0  0  0  0  0
 -108.8110   32.1280    6.8640 C   0  0  0  0  0  0  0  0  0  0  0  0
 -112.9570   32.1620    9.1480 C   0  0  0  0  0  0  0  0  0  0  0  0
 -109.7430   35.0580    7.6930 C   0  0  0  0  0  0  0  0  0  0  0  0
 -108.3780   35.7040    7.6190 C   0  0  0  0  0  0  0  0  0  0  0  0
 -111.7060   35.5320   11.2670 C   0  0  0  0  0  0  0  0  0  0  0  0
 -112.7540   25.6730    6.6640 N   0  0  0  0  0  0  0  0  0  0  0  0
 -110.2580   26.4450    7.7550 O   0  0  0  0  0  0  0  0  0  0  0  0
 -109.0540   26.8390    8.3320 C   0  0  0  0  0  0  0  0  0  0  0  0
 -109.0020   27.4550    9.5890 C   0  0  0  0  0  0  0  0  0  0  0  0
 -110.2080   27.7000   10.3270 N   0  0  0  0  0  0  0  0  0  0  0  0
 -114.9800   26.2350    8.2370 O   0  0  0  0  0  0  0  0  0  0  0  0
 -116.2690   26.9960   10.0550 O   0  0  0  0  0  0  0  0  0  0  0  0
 -113.8860   29.0820   13.8780 O   0  0  0  0  0  0  0  0  0  0  0  0
 -110.7070   28.5390   12.9320 O   0  0  0  0  0  0  0  0  0  0  0  0
 -112.5440   30.9330   13.3620 O   0  0  0  0  0  0  0  0  0  0  0  0
 -111.7420   34.5240   10.3160 O   0  0  0  0  0  0  0  0  0  0  0  0
 -109.8900   33.8800    8.4080 O   0  0  0  0  0  0  0  0  0  0  0  0
 -110.7060   35.6300    7.1990 O   0  0  0  0  0  0  0  0  0  0  0  0
 -112.3200   31.4710    6.0810 O   0  0  0  0  0  0  0  0  0  0  0  0
 -112.6940   30.6520    4.0970 O   0  0  0  0  0  0  0  0  0  0  0  0
 -113.6090   27.5880    5.6780 O   0  0  0  0  0  0  0  0  0  0  0  0
 -107.8950   26.5820    7.5780 C   0  0  0  0  0  0  0  0  0  0  0  0
 -106.6700   26.9440    8.0850 C   0  0  0  0  0  0  0  0  0  0  0  0
 -106.5770   27.5620    9.3380 C   0  0  0  0  0  0  0  0  0  0  0  0
 -107.7380   27.8180   10.0920 C   0  0  0  0  0  0  0  0  0  0  0  0
 -107.6460   28.4490   11.3590 O   0  0  0  0  0  0  0  0  0  0  0  0
 -106.6900   29.4610   11.5800 C   0  0  0  0  0  0  0  0  0  0  0  0
 -107.1350   30.4030   12.7270 C   0  0  0  0  0  0  0  0  0  0  0  0
 -106.6230   29.8810   14.0900 C   0  0  0  0  0  0  0  0  0  0  0  0
 -107.3990   28.6260   14.4920 C   0  0  0  0  0  0  0  0  0  0  0  0
 -104.6430   26.8190   17.0610 N   0  3  2  0  0  0  0  0  0  0  0  0
 -103.2150   27.0940   16.8140 C   0  0  0  0  0  0  0  0  0  0  0  0
 -103.0050   27.5360   15.3610 C   0  0  0  0  0  0  0  0  0  0  0  0
 -105.2810   25.8510   16.1960 C   0  0  0  0  0  0  0  0  0  0  0  0
 -106.4640   26.3750   15.3900 C   0  0  0  0  0  0  0  0  0  0  0  0
 -106.6350   27.8210   15.4590 N   0  3  2  0  0  0  0  0  0  0  0  0
 -106.7530   28.1950   16.8850 C   0  0  0  0  0  0  0  0  0  0  0  0
 -105.5040   27.8010   17.6740 C   0  0  0  0  0  0  0  0  0  0  0  0
 -101.4670   24.6760   13.6780 N   0  0  0  0  0  0  0  0  0  0  0  0
 -102.2790   25.1360   12.7080 C   0  0  0  0  0  0  0  0  0  0  0  0
 -102.9500   26.2420   13.2020 C   0  0  0  0  0  0  0  0  0  0  0  0
 -102.5390   26.4520   14.4850 N   0  0  0  0  0  0  0  0  0  0  0  0
 -101.6160   25.4920   14.7830 C   0  0  0  0  0  0  0  0  0  0  0  0
 -112.3744   30.1187   15.8661 H   0  0  0  0  0  0  0  0  0  0  0  0
 -110.8097   29.7533   15.0632 H   0  0  0  0  0  0  0  0  0  0  0  0
 -111.9337   28.4185   15.4896 H   0  0  0  0  0  0  0  0  0  0  0  0
 -116.4221   28.7321   13.6605 H   0  0  0  0  0  0  0  0  0  0  0  0
 -117.0977   27.2762   12.8541 H   0  0  0  0  0  0  0  0  0  0  0  0
 -117.2482   28.8867   12.0730 H   0  0  0  0  0  0  0  0  0  0  0  0
 -114.3709   25.3018    4.3431 H   0  0  0  0  0  0  0  0  0  0  0  0
 -114.4436   27.3332    3.4997 H   0  0  0  0  0  0  0  0  0  0  0  0
 -114.2546   25.9399    2.3818 H   0  0  0  0  0  0  0  0  0  0  0  0
 -113.1017   28.1080    1.8181 H   0  0  0  0  0  0  0  0  0  0  0  0
 -112.1603   26.5811    1.7232 H   0  0  0  0  0  0  0  0  0  0  0  0
 -110.7459   27.2279    3.0875 H   0  0  0  0  0  0  0  0  0  0  0  0
 -111.9892   27.8281    4.2367 H   0  0  0  0  0  0  0  0  0  0  0  0
 -111.7118   29.7584    2.1478 H   0  0  0  0  0  0  0  0  0  0  0  0
 -111.5095   29.3332    5.0560 H   0  0  0  0  0  0  0  0  0  0  0  0
 -109.5271   30.6546    4.9802 H   0  0  0  0  0  0  0  0  0  0  0  0
 -111.1043   32.9765    5.5305 H   0  0  0  0  0  0  0  0  0  0  0  0
 -110.3849   30.9074    7.6078 H   0  0  0  0  0  0  0  0  0  0  0  0
 -111.6602   33.4678    7.5632 H   0  0  0  0  0  0  0  0  0  0  0  0
 -111.0127   31.3925    9.5735 H   0  0  0  0  0  0  0  0  0  0  0  0
 -110.1850   33.3199   10.7825 H   0  0  0  0  0  0  0  0  0  0  0  0
 -113.0031   33.0706   11.7578 H   0  0  0  0  0  0  0  0  0  0  0  0
 -111.4676   33.2146   12.6788 H   0  0  0  0  0  0  0  0  0  0  0  0
 -110.9694   30.9908   12.0597 H   0  0  0  0  0  0  0  0  0  0  0  0
 -112.6028   30.8882   11.3192 H   0  0  0  0  0  0  0  0  0  0  0  0
 -112.4335   23.9916    4.8613 H   0  0  0  0  0  0  0  0  0  0  0  0
 -111.6844   24.7527    3.4169 H   0  0  0  0  0  0  0  0  0  0  0  0
 -113.2354   23.8603    3.2593 H   0  0  0  0  0  0  0  0  0  0  0  0
 -109.6557   28.6023    1.6319 H   0  0  0  0  0  0  0  0  0  0  0  0
 -109.1518   28.6857    3.3541 H   0  0  0  0  0  0  0  0  0  0  0  0
 -109.3165   30.1939    2.3924 H   0  0  0  0  0  0  0  0  0  0  0  0
 -109.7417   31.5437    2.7204 H   0  0  0  0  0  0  0  0  0  0  0  0
 -109.4378   32.8387    3.9275 H   0  0  0  0  0  0  0  0  0  0  0  0
 -111.0905   32.5968    3.2665 H   0  0  0  0  0  0  0  0  0  0  0  0
 -108.4442   31.3527    6.1753 H   0  0  0  0  0  0  0  0  0  0  0  0
 -108.2446   32.0796    7.8057 H   0  0  0  0  0  0  0  0  0  0  0  0
 -108.6765   33.1189    6.4057 H   0  0  0  0  0  0  0  0  0  0  0  0
 -113.1090   31.5146    8.2718 H   0  0  0  0  0  0  0  0  0  0  0  0
 -113.4400   33.1347    8.9733 H   0  0  0  0  0  0  0  0  0  0  0  0
 -113.3995   31.6870   10.0360 H   0  0  0  0  0  0  0  0  0  0  0  0
 -108.4394   36.6230    7.0176 H   0  0  0  0  0  0  0  0  0  0  0  0
 -107.6672   35.0067    7.1515 H   0  0  0  0  0  0  0  0  0  0  0  0
 -108.0343   35.9524    8.6340 H   0  0  0  0  0  0  0  0  0  0  0  0
 -112.1360   36.4515   10.8431 H   0  0  0  0  0  0  0  0  0  0  0  0
 -110.6636   35.7182   11.5648 H   0  0  0  0  0  0  0  0  0  0  0  0
 -112.2899   35.2263   12.1477 H   0  0  0  0  0  0  0  0  0  0  0  0
 -112.4684   24.7211    6.5527 H   0  0  0  0  0  0  0  0  0  0  0  0
 -116.2151   26.0602    9.9006 H   0  0  0  0  0  0  0  0  0  0  0  0
 -112.8146   31.4829    5.2700 H   0  0  0  0  0  0  0  0  0  0  0  0
 -112.9605   31.0303    4.9267 H   0  0  0  0  0  0  0  0  0  0  0  0
 -107.9671   26.1038    6.6079 H   0  0  0  0  0  0  0  0  0  0  0  0
 -105.7707   26.7500    7.5117 H   0  0  0  0  0  0  0  0  0  0  0  0
 -105.6064   27.8447    9.7293 H   0  0  0  0  0  0  0  0  0  0  0  0
 -106.5685   30.0488   10.6582 H   0  0  0  0  0  0  0  0  0  0  0  0
 -105.7296   28.9965   11.8480 H   0  0  0  0  0  0  0  0  0  0  0  0
 -108.2337   30.4525   12.7485 H   0  0  0  0  0  0  0  0  0  0  0  0
 -106.7261   31.4084   12.5483 H   0  0  0  0  0  0  0  0  0  0  0  0
 -106.7654   30.6584   14.8551 H   0  0  0  0  0  0  0  0  0  0  0  0
 -105.5533   29.6379   14.0089 H   0  0  0  0  0  0  0  0  0  0  0  0
 -107.5940   28.0206   13.5945 H   0  0  0  0  0  0  0  0  0  0  0  0
 -108.3546   28.9244   14.9478 H   0  0  0  0  0  0  0  0  0  0  0  0
 -104.5215   26.2311   17.8707 H   0  0  0  0  0  0  0  0  0  0  0  0
 -102.6309   26.1815   17.0043 H   0  0  0  0  0  0  0  0  0  0  0  0
 -102.8767   27.8935   17.4895 H   0  0  0  0  0  0  0  0  0  0  0  0
 -102.2573   28.3427   15.3461 H   0  0  0  0  0  0  0  0  0  0  0  0
 -103.9608   27.9146   14.9696 H   0  0  0  0  0  0  0  0  0  0  0  0
 -105.6381   25.0198   16.8218 H   0  0  0  0  0  0  0  0  0  0  0  0
 -104.5260   25.4788   15.4879 H   0  0  0  0  0  0  0  0  0  0  0  0
 -107.3799   25.8999   15.7714 H   0  0  0  0  0  0  0  0  0  0  0  0
 -106.3164   26.0941   14.3368 H   0  0  0  0  0  0  0  0  0  0  0  0
 -105.7047   28.1334   15.2287 H   0  0  0  0  0  0  0  0  0  0  0  0
 -107.6251   27.6829   17.3177 H   0  0  0  0  0  0  0  0  0  0  0  0
 -106.8932   29.2835   16.9584 H   0  0  0  0  0  0  0  0  0  0  0  0
 -104.9098   28.7122   17.8374 H   0  0  0  0  0  0  0  0  0  0  0  0
 -105.8333   27.3992   18.6436 H   0  0  0  0  0  0  0  0  0  0  0  0
 -102.3889   24.7129   11.7106 H   0  0  0  0  0  0  0  0  0  0  0  0
 -103.6800   26.8408   12.6594 H   0  0  0  0  0  0  0  0  0  0  0  0
 -101.0875   25.3871   15.7294 H   0  0  0  0  0  0  0  0  0  0  0  0
  1 43  2  0  0  0  0
  2  1  1  0  0  0  0
  2 38  1  0  0  0  0
  3  2  2  0  0  0  0
  4  3  1  0  0  0  0
  4 10  1  0  0  0  0
  5  6  2  0  0  0  0
  5 11  1  0  0  0  0
  6  7  1  0  0  0  0
  6 45  1  0  0  0  0
  7 14  1  0  0  0  0
  8  7  2  0  0  0  0
  8 44  1  0  0  0  0
  9  1  1  0  0  0  0
  9  8  1  0  0  0  0
 10  5  1  0  0  0  0
 10  9  2  0  0  0  0
 11 12  1  0  0  0  0
 11 46  2  0  0  0  0
 12 13  1  1  0  0  0
 12 45  1  0  0  0  0
 12 47  1  0  0  0  0
 13 76  1  0  0  0  0
 13 77  1  0  0  0  0
 13 78  1  0  0  0  0
 14 79  1  0  0  0  0
 14 80  1  0  0  0  0
 14 81  1  0  0  0  0
 15 16  1  0  0  0  0
 15 53  2  0  0  0  0
 16 17  1  0  0  0  0
 16 30  1  0  0  0  0
 16 82  1  1  0  0  0
 17 18  1  0  0  0  0
 17 83  1  0  0  0  0
 17 84  1  0  0  0  0
 18 19  1  0  0  0  0
 18 85  1  0  0  0  0
 18 86  1  0  0  0  0
 19 20  1  0  0  0  0
 19 87  1  0  0  0  0
 19 88  1  0  0  0  0
 20 21  1  0  0  0  0
 20 31  1  0  0  0  0
 20 89  1  6  0  0  0
 21 22  1  0  0  0  0
 21 52  1  0  0  0  0
 21 90  1  1  0  0  0
 22 23  1  0  0  0  0
 22 32  1  0  0  0  0
 22 91  1  1  0  0  0
 23 51  1  0  0  0  0
 23 92  1  6  0  0  0
 24 23  1  0  0  0  0
 24 33  1  0  0  0  0
 24 93  1  1  0  0  0
 25 24  1  0  0  0  0
 25 49  1  0  0  0  0
 25 94  1  6  0  0  0
 26 25  1  0  0  0  0
 26 34  1  0  0  0  0
 26 95  1  1  0  0  0
 27 26  1  0  0  0  0
 27 48  1  0  0  0  0
 27 96  1  1  0  0  0
 28 27  1  0  0  0  0
 28 97  1  0  0  0  0
 28 98  1  0  0  0  0
 29 28  1  0  0  0  0
 29 99  1  0  0  0  0
 29100  1  0  0  0  0
 30101  1  0  0  0  0
 30102  1  0  0  0  0
 30103  1  0  0  0  0
 31104  1  0  0  0  0
 31105  1  0  0  0  0
 31106  1  0  0  0  0
 32107  1  0  0  0  0
 32108  1  0  0  0  0
 32109  1  0  0  0  0
 33110  1  0  0  0  0
 33111  1  0  0  0  0
 33112  1  0  0  0  0
 34113  1  0  0  0  0
 34114  1  0  0  0  0
 34115  1  0  0  0  0
 35 36  1  0  0  0  0
 35 50  2  0  0  0  0
 36116  1  0  0  0  0
 36117  1  0  0  0  0
 36118  1  0  0  0  0
 37119  1  0  0  0  0
 37120  1  0  0  0  0
 37121  1  0  0  0  0
 38 15  1  0  0  0  0
 38122  1  0  0  0  0
 39  3  1  0  0  0  0
 40 39  1  0  0  0  0
 40 54  1  0  0  0  0
 41 40  2  0  0  0  0
 41 42  1  0  0  0  0
 42  4  2  0  0  0  0
 44123  1  0  0  0  0
 47 29  1  0  0  0  0
 48 37  1  0  0  0  0
 49 35  1  0  0  0  0
 51124  1  0  0  0  0
 52125  1  0  0  0  0
 54126  1  0  0  0  0
 55 54  2  0  0  0  0
 55127  1  0  0  0  0
 56 55  1  0  0  0  0
 56128  1  0  0  0  0
 57 41  1  0  0  0  0
 57 56  2  0  0  0  0
 58 57  1  0  0  0  0
 59 58  1  0  0  0  0
 59129  1  0  0  0  0
 59130  1  0  0  0  0
 60 59  1  0  0  0  0
 60131  1  0  0  0  0
 60132  1  0  0  0  0
 61 60  1  0  0  0  0
 61133  1  0  0  0  0
 61134  1  0  0  0  0
 62 61  1  0  0  0  0
 62135  1  0  0  0  0
 62136  1  0  0  0  0
 63 66  1  0  0  0  0
 63 70  1  0  0  0  0
 63137  1  1  0  0  0
 64 63  1  0  0  0  0
 64138  1  0  0  0  0
 64139  1  0  0  0  0
 65 64  1  0  0  0  0
 65140  1  0  0  0  0
 65141  1  0  0  0  0
 66 67  1  0  0  0  0
 66142  1  0  0  0  0
 66143  1  0  0  0  0
 67 68  1  0  0  0  0
 67144  1  0  0  0  0
 67145  1  0  0  0  0
 68 62  1  0  0  0  0
 68146  1  6  0  0  0
 69 68  1  0  0  0  0
 69147  1  0  0  0  0
 69148  1  0  0  0  0
 70 69  1  0  0  0  0
 70149  1  0  0  0  0
 70150  1  0  0  0  0
 71 75  2  0  0  0  0
 72 71  1  0  0  0  0
 72151  1  0  0  0  0
 73 72  2  0  0  0  0
 73 74  1  0  0  0  0
 73152  1  0  0  0  0
 74 65  1  0  0  0  0
 74 75  1  0  0  0  0
 75153  1  0  0  0  0
M  CHG  2  63   1  68   1
M  END
