4knb_ligand
 OpenBabel08222323353D

 56 60  0  0  1  0  0  0  0  0999 V2000
   11.3710   -1.8070   22.3920 F   0  0  0  0  0  0  0  0  0  0  0  0
   10.1490   -1.5040   21.9700 C   0  0  0  0  0  0  0  0  0  0  0  0
    9.6500   -0.2180   22.1050 C   0  0  0  0  0  0  0  0  0  0  0  0
    8.3710    0.0770   21.6530 C   0  0  0  0  0  0  0  0  0  0  0  0
    7.5930   -0.9130   21.0660 C   0  0  0  0  0  0  0  0  0  0  0  0
    6.0190   -0.5080   20.5160 Cl  0  0  0  0  0  0  0  0  0  0  0  0
    9.3710   -2.4930   21.3920 C   0  0  0  0  0  0  0  0  0  0  0  0
   10.0530   -4.0640   21.2680 Cl  0  0  0  0  0  0  0  0  0  0  0  0
    8.0820   -2.2130   20.9360 C   0  0  0  0  0  0  0  0  0  0  0  0
    7.2380   -3.3030   20.2860 C   0  0  1  0  0  0  0  0  0  0  0  0
    7.7720   -3.5380   18.8680 C   0  0  0  0  0  0  0  0  0  0  0  0
    7.2650   -4.5220   21.0500 O   0  0  0  0  0  0  0  0  0  0  0  0
    6.6230   -4.7640   22.2490 C   0  0  0  0  0  0  0  0  0  0  0  0
    5.6900   -3.8990   22.8250 C   0  0  0  0  0  0  0  0  0  0  0  0
    5.2790   -2.8200   22.4060 O   0  0  0  0  0  0  0  0  0  0  0  0
    4.4370   -2.3420   23.1690 C   0  0  0  0  0  0  0  0  0  0  0  0
    4.2520   -3.1430   24.2820 C   0  0  0  0  0  0  0  0  0  0  0  0
    5.0800   -4.1970   24.0240 C   0  0  0  0  0  0  0  0  0  0  0  0
    5.3570   -5.3530   24.7150 C   0  0  0  0  0  0  0  0  0  0  0  0
    6.2800   -6.2270   24.1620 N   0  0  0  0  0  0  0  0  0  0  0  0
    6.9090   -5.9420   22.9440 C   0  0  0  0  0  0  0  0  0  0  0  0
    7.8410   -6.8650   22.4290 N   0  0  0  0  0  0  0  0  0  0  0  0
    3.3790   -2.8640   25.4670 C   0  0  0  0  0  0  0  0  0  0  0  0
    3.3510   -3.4540   26.7110 C   0  0  0  0  0  0  0  0  0  0  0  0
    2.3820   -2.8420   27.4260 N   0  0  0  0  0  0  0  0  0  0  0  0
    1.8280   -1.9330   26.7400 N   0  0  0  0  0  0  0  0  0  0  0  0
    2.3980   -1.9030   25.5220 C   0  0  0  0  0  0  0  0  0  0  0  0
    2.0090   -3.1650   28.8240 C   0  0  0  0  0  0  0  0  0  0  0  0
    2.6550   -2.1740   29.8090 C   0  0  0  0  0  0  0  0  0  0  0  0
    2.1830   -2.4210   31.2530 C   0  0  0  0  0  0  0  0  0  0  0  0
    0.7140   -2.4000   31.3390 N   0  3  0  0  0  0  0  0  0  0  0  0
    0.0530   -3.3670   30.4510 C   0  0  0  0  0  0  0  0  0  0  0  0
    0.4730   -3.1200   28.9960 C   0  0  0  0  0  0  0  0  0  0  0  0
   10.2567    0.5552   22.5622 H   0  0  0  0  0  0  0  0  0  0  0  0
    7.9785    1.0820   21.7583 H   0  0  0  0  0  0  0  0  0  0  0  0
    6.1959   -2.9564   20.2241 H   0  0  0  0  0  0  0  0  0  0  0  0
    7.1771   -4.3226   18.3776 H   0  0  0  0  0  0  0  0  0  0  0  0
    8.8242   -3.8544   18.9202 H   0  0  0  0  0  0  0  0  0  0  0  0
    7.6977   -2.6057   18.2890 H   0  0  0  0  0  0  0  0  0  0  0  0
    3.9063   -1.4081   22.9899 H   0  0  0  0  0  0  0  0  0  0  0  0
    4.8709   -5.5731   25.6586 H   0  0  0  0  0  0  0  0  0  0  0  0
    8.0474   -7.7315   22.9462 H   0  0  0  0  0  0  0  0  0  0  0  0
    8.3159   -6.6732   21.5354 H   0  0  0  0  0  0  0  0  0  0  0  0
    3.9919   -4.2645   27.0549 H   0  0  0  0  0  0  0  0  0  0  0  0
    2.1266   -1.2277   24.7119 H   0  0  0  0  0  0  0  0  0  0  0  0
    2.3648   -4.1796   29.0562 H   0  0  0  0  0  0  0  0  0  0  0  0
    2.3827   -1.1497   29.5148 H   0  0  0  0  0  0  0  0  0  0  0  0
    3.7481   -2.2895   29.7662 H   0  0  0  0  0  0  0  0  0  0  0  0
    2.5926   -1.6352   31.9047 H   0  0  0  0  0  0  0  0  0  0  0  0
    2.5488   -3.4028   31.5880 H   0  0  0  0  0  0  0  0  0  0  0  0
    0.3947   -1.4754   31.0955 H   0  0  0  0  0  0  0  0  0  0  0  0
    0.4484   -2.6080   32.2889 H   0  0  0  0  0  0  0  0  0  0  0  0
   -1.0377   -3.2549   30.5387 H   0  0  0  0  0  0  0  0  0  0  0  0
    0.3416   -4.3870   30.7447 H   0  0  0  0  0  0  0  0  0  0  0  0
    0.0209   -3.8945   28.3590 H   0  0  0  0  0  0  0  0  0  0  0  0
    0.1090   -2.1300   28.6839 H   0  0  0  0  0  0  0  0  0  0  0  0
  1  2  1  0  0  0  0
  2  3  2  0  0  0  0
  2  7  1  0  0  0  0
  3  4  1  0  0  0  0
  3 34  1  0  0  0  0
  4  5  2  0  0  0  0
  4 35  1  0  0  0  0
  5  6  1  0  0  0  0
  5  9  1  0  0  0  0
  7  8  1  0  0  0  0
  7  9  2  0  0  0  0
  9 10  1  0  0  0  0
 10 11  1  0  0  0  0
 10 12  1  0  0  0  0
 10 36  1  6  0  0  0
 11 37  1  0  0  0  0
 11 38  1  0  0  0  0
 11 39  1  0  0  0  0
 12 13  1  0  0  0  0
 13 14  2  0  0  0  0
 13 21  1  0  0  0  0
 14 15  1  0  0  0  0
 14 18  1  0  0  0  0
 15 16  1  0  0  0  0
 16 17  2  0  0  0  0
 16 40  1  0  0  0  0
 17 18  1  0  0  0  0
 17 23  1  0  0  0  0
 18 19  2  0  0  0  0
 19 20  1  0  0  0  0
 19 41  1  0  0  0  0
 20 21  2  0  0  0  0
 21 22  1  0  0  0  0
 22 42  1  0  0  0  0
 22 43  1  0  0  0  0
 23 24  2  0  0  0  0
 23 27  1  0  0  0  0
 24 25  1  0  0  0  0
 24 44  1  0  0  0  0
 25 26  1  0  0  0  0
 25 28  1  0  0  0  0
 26 27  2  0  0  0  0
 27 45  1  0  0  0  0
 28 29  1  0  0  0  0
 28 33  1  0  0  0  0
 28 46  1  0  0  0  0
 29 30  1  0  0  0  0
 29 47  1  0  0  0  0
 29 48  1  0  0  0  0
 30 31  1  0  0  0  0
 30 49  1  0  0  0  0
 30 50  1  0  0  0  0
 31 32  1  0  0  0  0
 31 51  1  0  0  0  0
 31 52  1  0  0  0  0
 32 33  1  0  0  0  0
 32 53  1  0  0  0  0
 32 54  1  0  0  0  0
 33 55  1  0  0  0  0
 33 56  1  0  0  0  0
M  CHG  1  31   1
M  END
