4kon_ligand
 OpenBabel08222323353D

 60 61  0  0  1  0  0  0  0  0999 V2000
  -27.0380    0.2630  -13.7380 C   0  0  0  0  0  0  0  0  0  0  0  0
  -26.4380    0.8620  -12.4840 C   0  0  1  0  0  0  0  0  0  0  0  0
  -27.0590   -0.1320  -11.6880 C   0  0  0  0  0  0  0  0  0  0  0  0
  -26.6660   -1.5070  -11.7660 C   0  0  1  0  0  0  0  0  0  0  0  0
  -25.2300   -1.7510  -11.4540 C   0  0  2  0  0  0  0  0  0  0  0  0
  -24.4060   -0.8130  -12.2620 C   0  0  2  0  0  0  0  0  0  0  0  0
  -23.0440   -0.7230  -11.9220 C   0  0  1  0  0  0  0  0  0  0  0  0
  -22.4120    0.4090  -12.7800 C   0  0  1  0  0  0  0  0  0  0  0  0
  -20.8790    0.3540  -12.7750 C   0  0  0  0  0  0  0  0  0  0  0  0
  -23.8370   -3.9130  -11.0800 C   0  0  0  0  0  0  0  0  0  0  0  0
  -23.5860   -5.3610  -11.4620 C   0  0  0  0  0  0  0  0  0  0  0  0
  -24.9150   -3.1540  -11.7690 N   0  0  0  0  0  0  0  0  0  0  0  0
  -26.2430   -0.1120  -14.6860 O   0  5  0  0  0  0  0  0  0  0  0  0
  -28.2870    0.1540  -13.8930 O   0  0  0  0  0  0  0  0  0  0  0  0
  -27.5170   -2.3480  -10.9690 O   0  0  0  0  0  0  0  0  0  0  0  0
  -25.0850    0.5480  -12.0110 O   0  0  0  0  0  0  0  0  0  0  0  0
  -22.8680   -0.4070  -10.5750 O   0  0  0  0  0  0  0  0  0  0  0  0
  -22.8710    0.4080  -14.0960 O   0  0  0  0  0  0  0  0  0  0  0  0
  -20.2020    1.5370  -13.0160 O   0  0  0  0  0  0  0  0  0  0  0  0
  -23.1280   -3.3750  -10.1970 O   0  0  0  0  0  0  0  0  0  0  0  0
  -28.4680    5.9010  -10.7270 C   0  0  2  0  0  0  0  0  0  0  0  0
  -27.8100    7.0020  -11.5380 C   0  0  1  0  0  0  0  0  0  0  0  0
  -27.6190    6.5970  -12.9960 C   0  0  2  0  0  0  0  0  0  0  0  0
  -26.8520    5.2840  -13.1150 C   0  0  2  0  0  0  0  0  0  0  0  0
  -27.4270    4.2480  -12.1480 C   0  0  1  0  0  0  0  0  0  0  0  0
  -26.4660    3.0630  -11.9610 C   0  0  0  0  0  0  0  0  0  0  0  0
  -28.5050    6.2810   -9.3630 O   0  0  0  0  0  0  0  0  0  0  0  0
  -28.6360    8.1490  -11.4790 O   0  0  0  0  0  0  0  0  0  0  0  0
  -26.9310    7.6200  -13.6680 O   0  0  0  0  0  0  0  0  0  0  0  0
  -25.4840    5.4810  -12.8300 O   0  0  0  0  0  0  0  0  0  0  0  0
  -27.6240    4.7880  -10.8520 O   0  0  0  0  0  0  0  0  0  0  0  0
  -27.2070    1.8630  -11.7910 O   0  0  0  0  0  0  0  0  0  0  0  0
  -28.1308   -0.1013  -11.9336 H   0  0  0  0  0  0  0  0  0  0  0  0
  -26.9137    0.1732  -10.6412 H   0  0  0  0  0  0  0  0  0  0  0  0
  -26.8106   -1.8089  -12.8138 H   0  0  0  0  0  0  0  0  0  0  0  0
  -25.0438   -1.5689  -10.3853 H   0  0  0  0  0  0  0  0  0  0  0  0
  -24.4744   -1.0926  -13.3237 H   0  0  0  0  0  0  0  0  0  0  0  0
  -22.5492   -1.6814  -12.1380 H   0  0  0  0  0  0  0  0  0  0  0  0
  -22.7130    1.3639  -12.3245 H   0  0  0  0  0  0  0  0  0  0  0  0
  -20.5713   -0.3663  -13.5473 H   0  0  0  0  0  0  0  0  0  0  0  0
  -20.5644   -0.0116  -11.7864 H   0  0  0  0  0  0  0  0  0  0  0  0
  -22.7597   -5.7619  -10.8567 H   0  0  0  0  0  0  0  0  0  0  0  0
  -23.3209   -5.4184  -12.5280 H   0  0  0  0  0  0  0  0  0  0  0  0
  -24.4955   -5.9517  -11.2780 H   0  0  0  0  0  0  0  0  0  0  0  0
  -25.4487   -3.6169  -12.4767 H   0  0  0  0  0  0  0  0  0  0  0  0
  -28.4254   -2.1739  -11.1860 H   0  0  0  0  0  0  0  0  0  0  0  0
  -23.2500   -1.0912  -10.0378 H   0  0  0  0  0  0  0  0  0  0  0  0
  -23.8204    0.4421  -14.0991 H   0  0  0  0  0  0  0  0  0  0  0  0
  -20.4354    2.1751  -12.3520 H   0  0  0  0  0  0  0  0  0  0  0  0
  -29.4804    5.6827  -11.0977 H   0  0  0  0  0  0  0  0  0  0  0  0
  -26.8272    7.2320  -11.1008 H   0  0  0  0  0  0  0  0  0  0  0  0
  -28.6083    6.4667  -13.4589 H   0  0  0  0  0  0  0  0  0  0  0  0
  -26.9516    4.9079  -14.1439 H   0  0  0  0  0  0  0  0  0  0  0  0
  -28.3863    3.8894  -12.5493 H   0  0  0  0  0  0  0  0  0  0  0  0
  -25.8423    3.2358  -11.0716 H   0  0  0  0  0  0  0  0  0  0  0  0
  -25.8222    2.9717  -12.8482 H   0  0  0  0  0  0  0  0  0  0  0  0
  -27.6278    6.5028   -9.0733 H   0  0  0  0  0  0  0  0  0  0  0  0
  -28.7572    8.4043  -10.5720 H   0  0  0  0  0  0  0  0  0  0  0  0
  -26.0688    7.7259  -13.2834 H   0  0  0  0  0  0  0  0  0  0  0  0
  -25.1261    6.1244  -13.4303 H   0  0  0  0  0  0  0  0  0  0  0  0
  1 13  1  0  0  0  0
  1 14  2  0  0  0  0
  2  1  1  6  0  0  0
  2  3  1  0  0  0  0
  2 16  1  0  0  0  0
  3  4  1  0  0  0  0
  3 33  1  0  0  0  0
  3 34  1  0  0  0  0
  4  5  1  0  0  0  0
  4 15  1  0  0  0  0
  4 35  1  6  0  0  0
  5 12  1  0  0  0  0
  5 36  1  1  0  0  0
  6  5  1  0  0  0  0
  6  7  1  0  0  0  0
  6 37  1  6  0  0  0
  7  8  1  0  0  0  0
  7 17  1  0  0  0  0
  7 38  1  6  0  0  0
  8  9  1  0  0  0  0
  8 18  1  0  0  0  0
  8 39  1  1  0  0  0
  9 19  1  0  0  0  0
  9 40  1  0  0  0  0
  9 41  1  0  0  0  0
 10 11  1  0  0  0  0
 10 20  2  0  0  0  0
 11 42  1  0  0  0  0
 11 43  1  0  0  0  0
 11 44  1  0  0  0  0
 12 10  1  0  0  0  0
 12 45  1  0  0  0  0
 15 46  1  0  0  0  0
 16  6  1  0  0  0  0
 17 47  1  0  0  0  0
 18 48  1  0  0  0  0
 19 49  1  0  0  0  0
 21 22  1  0  0  0  0
 21 27  1  0  0  0  0
 21 50  1  6  0  0  0
 22 28  1  0  0  0  0
 22 51  1  1  0  0  0
 23 22  1  0  0  0  0
 23 29  1  0  0  0  0
 23 52  1  6  0  0  0
 24 23  1  0  0  0  0
 24 30  1  0  0  0  0
 24 53  1  6  0  0  0
 25 24  1  0  0  0  0
 25 31  1  0  0  0  0
 25 54  1  6  0  0  0
 26 25  1  0  0  0  0
 26 32  1  0  0  0  0
 26 55  1  0  0  0  0
 26 56  1  0  0  0  0
 27 57  1  0  0  0  0
 28 58  1  0  0  0  0
 29 59  1  0  0  0  0
 30 60  1  0  0  0  0
 31 21  1  0  0  0  0
 32  2  1  0  0  0  0
M  CHG  1  13  -1
M  END
