4kov_ligand
 OpenBabel08222323353D

 44 46  0  0  1  0  0  0  0  0999 V2000
   16.5460    2.4860    8.9150 S   0  0  0  0  0  0  0  0  0  0  0  0
   10.6310   -1.4960   10.6520 C   0  0  0  0  0  0  0  0  0  0  0  0
   12.5720   -1.8100    9.4160 N   0  0  0  0  0  0  0  0  0  0  0  0
   12.0740   -1.4080   10.6770 O   0  0  0  0  0  0  0  0  0  0  0  0
   13.6110   -1.1340    9.0810 C   0  0  0  0  0  0  0  0  0  0  0  0
   13.7060    1.1620    9.5630 N   0  0  0  0  0  0  0  0  0  0  0  0
   13.6640   -2.4800    7.1190 O   0  0  0  0  0  0  0  0  0  0  0  0
   14.2170   -1.4230    7.8260 C   0  0  0  0  0  0  0  0  0  0  0  0
   14.5060    4.1620    9.3780 N   0  0  0  0  0  0  0  0  0  0  0  0
   15.0170   -0.2130   10.7620 O   0  0  0  0  0  0  0  0  0  0  0  0
   15.2460   -0.8950    7.1230 C   0  0  0  0  0  0  0  0  0  0  0  0
   19.7260    8.1720    9.0470 N   0  0  0  0  0  0  0  0  0  0  0  0
   12.1670    3.9350    9.5330 O   0  0  0  0  0  0  0  0  0  0  0  0
   15.3570   -1.6780    5.9330 C   0  0  0  0  0  0  0  0  0  0  0  0
   18.0250    6.9120    8.5810 O   0  0  0  0  0  0  0  0  0  0  0  0
   14.4130   -2.5730    5.9590 C   0  0  0  0  0  0  0  0  0  0  0  0
   18.1750    8.8730    7.4640 O   0  0  0  0  0  0  0  0  0  0  0  0
   14.2000   -0.0220    9.8790 C   0  0  0  0  0  0  0  0  0  0  0  0
   14.0540    7.3870    8.4670 O   0  5  0  0  0  0  0  0  0  0  0  0
   14.0200    2.3780   10.2910 C   0  0  1  0  0  0  0  0  0  0  0  0
   13.1060    5.7590    7.3380 O   0  0  0  0  0  0  0  0  0  0  0  0
   15.3260    3.1350   10.0550 C   0  0  1  0  0  0  0  0  0  0  0  0
   13.3420    3.6430    9.6840 C   0  0  0  0  0  0  0  0  0  0  0  0
   15.0470    5.2380    8.6100 C   0  0  0  0  0  0  0  0  0  0  0  0
   16.3190    5.2170    8.3390 C   0  0  0  0  0  0  0  0  0  0  0  0
   17.3150    4.1240    8.6080 C   0  0  0  0  0  0  0  0  0  0  0  0
   16.9800    6.3990    7.6370 C   0  0  0  0  0  0  0  0  0  0  0  0
   18.6190    8.0610    8.2860 C   0  0  0  0  0  0  0  0  0  0  0  0
   14.0120    6.1790    8.0810 C   0  0  0  0  0  0  0  0  0  0  0  0
   10.2278   -1.1860   11.6274 H   0  0  0  0  0  0  0  0  0  0  0  0
   10.3304   -2.5335   10.4440 H   0  0  0  0  0  0  0  0  0  0  0  0
   10.2369   -0.8354    9.8657 H   0  0  0  0  0  0  0  0  0  0  0  0
   13.0840    1.2236    8.7824 H   0  0  0  0  0  0  0  0  0  0  0  0
   15.8645   -0.0449    7.4070 H   0  0  0  0  0  0  0  0  0  0  0  0
   20.3102    8.9795    8.9651 H   0  0  0  0  0  0  0  0  0  0  0  0
   19.9631    7.4469    9.6935 H   0  0  0  0  0  0  0  0  0  0  0  0
   16.0984   -1.5489    5.1458 H   0  0  0  0  0  0  0  0  0  0  0  0
   14.2351   -3.3016    5.1695 H   0  0  0  0  0  0  0  0  0  0  0  0
   13.8105    2.2008   11.3562 H   0  0  0  0  0  0  0  0  0  0  0  0
   15.8253    3.4502   10.9831 H   0  0  0  0  0  0  0  0  0  0  0  0
   17.9801    4.0377    7.7361 H   0  0  0  0  0  0  0  0  0  0  0  0
   17.9054    4.4022    9.4935 H   0  0  0  0  0  0  0  0  0  0  0  0
   17.4441    6.0724    6.6947 H   0  0  0  0  0  0  0  0  0  0  0  0
   16.2370    7.1826    7.4275 H   0  0  0  0  0  0  0  0  0  0  0  0
  1 22  1  0  0  0  0
  2 30  1  0  0  0  0
  2 31  1  0  0  0  0
  2 32  1  0  0  0  0
  3  4  1  0  0  0  0
  4  2  1  0  0  0  0
  5  3  2  0  0  0  0
  5  8  1  0  0  0  0
  6 18  1  0  0  0  0
  6 33  1  0  0  0  0
  7 16  1  0  0  0  0
  8  7  1  0  0  0  0
  8 11  2  0  0  0  0
  9 22  1  0  0  0  0
  9 23  1  0  0  0  0
 11 14  1  0  0  0  0
 11 34  1  0  0  0  0
 12 35  1  0  0  0  0
 12 36  1  0  0  0  0
 14 16  2  0  0  0  0
 14 37  1  0  0  0  0
 15 28  1  0  0  0  0
 16 38  1  0  0  0  0
 18  5  1  0  0  0  0
 18 10  2  0  0  0  0
 20  6  1  0  0  0  0
 20 39  1  1  0  0  0
 22 20  1  0  0  0  0
 22 40  1  1  0  0  0
 23 13  2  0  0  0  0
 23 20  1  0  0  0  0
 24  9  1  0  0  0  0
 24 29  1  0  0  0  0
 25 24  2  0  0  0  0
 25 26  1  0  0  0  0
 25 27  1  0  0  0  0
 26  1  1  0  0  0  0
 26 41  1  0  0  0  0
 26 42  1  0  0  0  0
 27 15  1  0  0  0  0
 27 43  1  0  0  0  0
 27 44  1  0  0  0  0
 28 12  1  0  0  0  0
 28 17  2  0  0  0  0
 29 19  1  0  0  0  0
 29 21  2  0  0  0  0
M  CHG  1  19  -1
M  END
