4kp6_ligand
 OpenBabel08222323353D

 38 39  0  0  0  0  0  0  0  0999 V2000
  -41.4990   90.8870  116.2040 C   0  0  0  0  0  0  0  0  0  0  0  0
  -39.8600   90.7430  114.5090 C   0  0  0  0  0  0  0  0  0  0  0  0
  -39.4460   89.8180  116.6260 C   0  0  0  0  0  0  0  0  0  0  0  0
  -39.3330   92.1900  111.3240 N   0  0  0  0  0  0  0  0  0  0  0  0
  -38.2970   91.3500  111.4970 C   0  0  0  0  0  0  0  0  0  0  0  0
  -38.6050   89.1440  117.4750 N   0  0  0  0  0  0  0  0  0  0  0  0
  -43.8180   91.8010  115.6670 C   0  0  0  0  0  0  0  0  0  0  0  0
  -44.9770   92.2720  116.5630 C   0  0  0  0  0  0  0  0  0  0  0  0
  -46.2140   92.8050  115.8420 C   0  0  0  0  0  0  0  0  0  0  0  0
  -44.2400   90.6890  114.6660 C   0  0  0  0  0  0  0  0  0  0  0  0
  -44.8020   89.4560  115.3860 C   0  0  0  0  0  0  0  0  0  0  0  0
  -42.9900   93.8260  114.2230 N   0  0  0  0  0  0  0  0  0  0  0  0
  -43.3560   92.9370  114.8660 C   0  0  0  0  0  0  0  0  0  0  0  0
  -42.7650   91.2970  116.5760 N   0  0  0  0  0  0  0  0  0  0  0  0
  -40.6650   90.2570  117.0710 N   0  0  0  0  0  0  0  0  0  0  0  0
  -37.3070   88.6180  117.0570 C   0  0  0  0  0  0  0  0  0  0  0  0
  -39.0160   90.1050  115.3590 N   0  0  0  0  0  0  0  0  0  0  0  0
  -41.0900   91.1610  114.9320 N   0  0  0  0  0  0  0  0  0  0  0  0
  -39.4210   91.1000  113.1860 N   0  0  0  0  0  0  0  0  0  0  0  0
  -38.3610   90.7110  112.6460 N   0  0  0  0  0  0  0  0  0  0  0  0
  -40.0440   92.0300  112.4420 C   0  0  0  0  0  0  0  0  0  0  0  0
  -37.4974   91.2142  110.7703 H   0  0  0  0  0  0  0  0  0  0  0  0
  -38.9018   89.0023  118.4511 H   0  0  0  0  0  0  0  0  0  0  0  0
  -44.5951   93.0742  117.2116 H   0  0  0  0  0  0  0  0  0  0  0  0
  -45.2911   91.4184  117.1817 H   0  0  0  0  0  0  0  0  0  0  0  0
  -46.9680   93.1086  116.5832 H   0  0  0  0  0  0  0  0  0  0  0  0
  -46.6303   92.0173  115.1969 H   0  0  0  0  0  0  0  0  0  0  0  0
  -45.9344   93.6730  115.2269 H   0  0  0  0  0  0  0  0  0  0  0  0
  -43.3609   90.3875  114.0776 H   0  0  0  0  0  0  0  0  0  0  0  0
  -45.0117   91.0904  113.9928 H   0  0  0  0  0  0  0  0  0  0  0  0
  -45.0873   88.6962  114.6435 H   0  0  0  0  0  0  0  0  0  0  0  0
  -45.6862   89.7454  115.9728 H   0  0  0  0  0  0  0  0  0  0  0  0
  -44.0353   89.0425  116.0577 H   0  0  0  0  0  0  0  0  0  0  0  0
  -42.9970   91.2472  117.5783 H   0  0  0  0  0  0  0  0  0  0  0  0
  -36.8211   88.1209  117.9095 H   0  0  0  0  0  0  0  0  0  0  0  0
  -36.6727   89.4446  116.7044 H   0  0  0  0  0  0  0  0  0  0  0  0
  -37.4503   87.8926  116.2426 H   0  0  0  0  0  0  0  0  0  0  0  0
  -40.9608   92.5564  112.7035 H   0  0  0  0  0  0  0  0  0  0  0  0
  1 14  1  0  0  0  0
  1 15  2  0  0  0  0
  2 17  1  0  0  0  0
  2 18  2  0  0  0  0
  3  6  1  0  0  0  0
  3 15  1  0  0  0  0
  4 21  2  0  0  0  0
  5  4  1  0  0  0  0
  5 22  1  0  0  0  0
  6 16  1  0  0  0  0
  6 23  1  0  0  0  0
  7  8  1  0  0  0  0
  7 10  1  0  0  0  0
  7 13  1  0  0  0  0
  8  9  1  0  0  0  0
  8 24  1  0  0  0  0
  8 25  1  0  0  0  0
  9 26  1  0  0  0  0
  9 27  1  0  0  0  0
  9 28  1  0  0  0  0
 10 11  1  0  0  0  0
 10 29  1  0  0  0  0
 10 30  1  0  0  0  0
 11 31  1  0  0  0  0
 11 32  1  0  0  0  0
 11 33  1  0  0  0  0
 13 12  3  0  0  0  0
 14  7  1  0  0  0  0
 14 34  1  0  0  0  0
 16 35  1  0  0  0  0
 16 36  1  0  0  0  0
 16 37  1  0  0  0  0
 17  3  2  0  0  0  0
 18  1  1  0  0  0  0
 19  2  1  0  0  0  0
 19 20  1  0  0  0  0
 19 21  1  0  0  0  0
 20  5  2  0  0  0  0
 21 38  1  0  0  0  0
M  END
