4kql_ligand
 OpenBabel08222323353D

 53 56  0  0  0  0  0  0  0  0999 V2000
   41.9200   57.5170   23.0970 C   0  0  0  0  0  0  0  0  0  0  0  0
   41.8170   58.8700   22.7010 O   0  0  0  0  0  0  0  0  0  0  0  0
   41.7560   59.0130   21.3140 C   0  0  0  0  0  0  0  0  0  0  0  0
   40.9700   60.0580   20.8870 C   0  0  0  0  0  0  0  0  0  0  0  0
   40.8540   60.3670   19.5450 C   0  0  0  0  0  0  0  0  0  0  0  0
   41.5070   59.5790   18.6180 C   0  0  0  0  0  0  0  0  0  0  0  0
   42.2790   58.5060   19.0350 C   0  0  0  0  0  0  0  0  0  0  0  0
   42.4270   58.2230   20.3850 C   0  0  0  0  0  0  0  0  0  0  0  0
   42.9130   57.6920   17.9800 C   0  0  0  0  0  0  0  0  0  0  0  0
   42.5050   57.8370   16.8370 O   0  0  0  0  0  0  0  0  0  0  0  0
   43.9120   56.8230   18.3730 N   0  0  0  0  0  0  0  0  0  0  0  0
   44.6030   55.9480   17.5140 C   0  0  0  0  0  0  0  0  0  0  0  0
   44.8050   54.6510   17.9340 C   0  0  0  0  0  0  0  0  0  0  0  0
   45.4900   53.7650   17.1300 C   0  0  0  0  0  0  0  0  0  0  0  0
   45.9660   54.1570   15.8920 C   0  0  0  0  0  0  0  0  0  0  0  0
   45.7840   55.4610   15.4730 C   0  0  0  0  0  0  0  0  0  0  0  0
   45.1080   56.3510   16.2870 C   0  0  0  0  0  0  0  0  0  0  0  0
   46.6910   53.2880   15.0460 N   0  0  0  0  0  0  0  0  0  0  0  0
   46.5220   51.9170   14.9140 C   0  0  0  0  0  0  0  0  0  0  0  0
   45.9050   51.1620   15.6630 O   0  0  0  0  0  0  0  0  0  0  0  0
   47.1970   51.3650   13.7150 C   0  0  0  0  0  0  0  0  0  0  0  0
   47.4940   52.2060   12.6600 C   0  0  0  0  0  0  0  0  0  0  0  0
   48.1190   51.6530   11.5590 C   0  0  0  0  0  0  0  0  0  0  0  0
   48.4180   50.3030   11.5500 C   0  0  0  0  0  0  0  0  0  0  0  0
   48.0780   49.5490   12.6550 C   0  0  0  0  0  0  0  0  0  0  0  0
   47.4700   50.0490   13.7420 N   0  0  0  0  0  0  0  0  0  0  0  0
   39.9720   61.4540   19.1460 C   0  0  0  0  0  0  0  0  0  0  0  0
   39.1890   61.2830   18.0760 C   0  0  0  0  0  0  0  0  0  0  0  0
   38.2650   62.1860   17.6430 N   0  0  0  0  0  0  0  0  0  0  0  0
   38.0080   63.3450   18.3210 C   0  0  0  0  0  0  0  0  0  0  0  0
   37.1540   64.1370   17.9500 O   0  0  0  0  0  0  0  0  0  0  0  0
   38.7870   63.5370   19.4560 N   0  0  0  0  0  0  0  0  0  0  0  0
   39.7740   62.7060   19.9320 C   0  0  0  0  0  0  0  0  0  0  0  0
   40.4450   62.9620   20.9240 O   0  0  0  0  0  0  0  0  0  0  0  0
   41.9647   57.4586   24.1945 H   0  0  0  0  0  0  0  0  0  0  0  0
   42.8334   57.0782   22.6690 H   0  0  0  0  0  0  0  0  0  0  0  0
   41.0421   56.9613   22.7357 H   0  0  0  0  0  0  0  0  0  0  0  0
   40.4311   60.6507   21.6173 H   0  0  0  0  0  0  0  0  0  0  0  0
   41.4156   59.8003   17.5608 H   0  0  0  0  0  0  0  0  0  0  0  0
   43.0542   57.4010   20.7107 H   0  0  0  0  0  0  0  0  0  0  0  0
   44.1633   56.8149   19.3409 H   0  0  0  0  0  0  0  0  0  0  0  0
   44.4253   54.3275   18.8964 H   0  0  0  0  0  0  0  0  0  0  0  0
   45.6574   52.7500   17.4719 H   0  0  0  0  0  0  0  0  0  0  0  0
   46.1687   55.7841   14.5124 H   0  0  0  0  0  0  0  0  0  0  0  0
   44.9711   57.3761   15.9621 H   0  0  0  0  0  0  0  0  0  0  0  0
   47.4027   53.7061   14.4815 H   0  0  0  0  0  0  0  0  0  0  0  0
   47.2459   53.2606   12.6948 H   0  0  0  0  0  0  0  0  0  0  0  0
   48.3734   52.2736   10.7074 H   0  0  0  0  0  0  0  0  0  0  0  0
   48.9073   49.8481   10.6963 H   0  0  0  0  0  0  0  0  0  0  0  0
   48.3159   48.4915   12.6442 H   0  0  0  0  0  0  0  0  0  0  0  0
   39.2971   60.3581   17.5114 H   0  0  0  0  0  0  0  0  0  0  0  0
   37.7586   61.9948   16.8022 H   0  0  0  0  0  0  0  0  0  0  0  0
   38.6109   64.3685   19.9829 H   0  0  0  0  0  0  0  0  0  0  0  0
  1  2  1  0  0  0  0
  1 35  1  0  0  0  0
  1 36  1  0  0  0  0
  1 37  1  0  0  0  0
  2  3  1  0  0  0  0
  3  4  2  0  0  0  0
  3  8  1  0  0  0  0
  4  5  1  0  0  0  0
  4 38  1  0  0  0  0
  5  6  2  0  0  0  0
  5 27  1  0  0  0  0
  6  7  1  0  0  0  0
  6 39  1  0  0  0  0
  7  8  2  0  0  0  0
  7  9  1  0  0  0  0
  8 40  1  0  0  0  0
  9 10  2  0  0  0  0
  9 11  1  0  0  0  0
 11 12  1  0  0  0  0
 11 41  1  0  0  0  0
 12 13  2  0  0  0  0
 12 17  1  0  0  0  0
 13 14  1  0  0  0  0
 13 42  1  0  0  0  0
 14 15  2  0  0  0  0
 14 43  1  0  0  0  0
 15 16  1  0  0  0  0
 15 18  1  0  0  0  0
 16 17  2  0  0  0  0
 16 44  1  0  0  0  0
 17 45  1  0  0  0  0
 18 19  1  0  0  0  0
 18 46  1  0  0  0  0
 19 20  2  0  0  0  0
 19 21  1  0  0  0  0
 21 22  2  0  0  0  0
 21 26  1  0  0  0  0
 22 23  1  0  0  0  0
 22 47  1  0  0  0  0
 23 24  2  0  0  0  0
 23 48  1  0  0  0  0
 24 25  1  0  0  0  0
 24 49  1  0  0  0  0
 25 26  2  0  0  0  0
 25 50  1  0  0  0  0
 27 28  2  0  0  0  0
 27 33  1  0  0  0  0
 28 29  1  0  0  0  0
 28 51  1  0  0  0  0
 29 30  1  0  0  0  0
 29 52  1  0  0  0  0
 30 31  2  0  0  0  0
 30 32  1  0  0  0  0
 32 33  1  0  0  0  0
 32 53  1  0  0  0  0
 33 34  2  0  0  0  0
M  END
