4krs_ligand
 OpenBabel08222323353D

 39 41  0  0  0  0  0  0  0  0999 V2000
  -25.8670  -10.8350    6.6840 C   0  0  0  0  0  0  0  0  0  0  0  0
  -23.2450   -8.7450    7.9160 C   0  0  0  0  0  0  0  0  0  0  0  0
  -24.3160   -6.5610    7.8950 C   0  0  0  0  0  0  0  0  0  0  0  0
  -24.1960   -5.0780    7.6180 C   0  0  0  0  0  0  0  0  0  0  0  0
  -22.9710   -4.4500    7.8030 C   0  0  0  0  0  0  0  0  0  0  0  0
  -22.8140   -3.0830    7.5640 C   0  0  0  0  0  0  0  0  0  0  0  0
  -23.8740   -2.2820    7.1360 C   0  0  0  0  0  0  0  0  0  0  0  0
  -25.1050   -2.9280    6.9440 C   0  0  0  0  0  0  0  0  0  0  0  0
  -25.2720   -4.2980    7.1860 C   0  0  0  0  0  0  0  0  0  0  0  0
  -23.7080   -0.7540    6.8570 C   0  0  0  0  0  0  0  0  0  0  0  0
  -23.0550   -0.6060    5.4570 C   0  0  0  0  0  0  0  0  0  0  0  0
  -25.0230  -11.9390    7.8910 S   0  0  0  0  0  0  0  0  0  0  0  0
  -25.5870   -9.3880    7.1840 C   0  0  0  0  0  0  0  0  0  0  0  0
  -24.2390   -9.5570    7.7140 N   0  0  0  0  0  0  0  0  0  0  0  0
  -23.8300  -10.7100    8.0800 C   0  0  0  0  0  0  0  0  0  0  0  0
  -22.6300  -10.7320    8.4990 N   0  0  0  0  0  0  0  0  0  0  0  0
  -22.2260   -9.3580    8.3910 N   0  0  0  0  0  0  0  0  0  0  0  0
  -23.2560   -7.3990    7.6910 N   0  0  0  0  0  0  0  0  0  0  0  0
  -25.4190   -6.9160    8.3260 O   0  0  0  0  0  0  0  0  0  0  0  0
  -22.7960   -0.0010    7.8760 C   0  0  0  0  0  0  0  0  0  0  0  0
  -25.0950   -0.0320    6.8670 C   0  0  0  0  0  0  0  0  0  0  0  0
  -26.9486  -11.0350    6.6700 H   0  0  0  0  0  0  0  0  0  0  0  0
  -25.4540  -10.9804    5.6749 H   0  0  0  0  0  0  0  0  0  0  0  0
  -22.1206   -5.0320    8.1393 H   0  0  0  0  0  0  0  0  0  0  0  0
  -21.8405   -2.6308    7.7153 H   0  0  0  0  0  0  0  0  0  0  0  0
  -25.9533   -2.3489    6.5976 H   0  0  0  0  0  0  0  0  0  0  0  0
  -26.2430   -4.7562    7.0370 H   0  0  0  0  0  0  0  0  0  0  0  0
  -22.9220    0.4611    5.2254 H   0  0  0  0  0  0  0  0  0  0  0  0
  -23.7046   -1.0675    4.6987 H   0  0  0  0  0  0  0  0  0  0  0  0
  -22.0755   -1.1065    5.4545 H   0  0  0  0  0  0  0  0  0  0  0  0
  -26.2973   -9.0822    7.9662 H   0  0  0  0  0  0  0  0  0  0  0  0
  -25.6129   -8.6597    6.3601 H   0  0  0  0  0  0  0  0  0  0  0  0
  -22.4120   -6.9888    7.3456 H   0  0  0  0  0  0  0  0  0  0  0  0
  -23.2273   -0.0834    8.8846 H   0  0  0  0  0  0  0  0  0  0  0  0
  -22.7269    1.0595    7.5923 H   0  0  0  0  0  0  0  0  0  0  0  0
  -21.7912   -0.4486    7.8693 H   0  0  0  0  0  0  0  0  0  0  0  0
  -25.7734   -0.5314    6.1597 H   0  0  0  0  0  0  0  0  0  0  0  0
  -24.9636    1.0187    6.5692 H   0  0  0  0  0  0  0  0  0  0  0  0
  -25.5237   -0.0754    7.8791 H   0  0  0  0  0  0  0  0  0  0  0  0
  1 12  1  0  0  0  0
  1 22  1  0  0  0  0
  1 23  1  0  0  0  0
  2 17  2  0  0  0  0
  2 18  1  0  0  0  0
  3  4  1  0  0  0  0
  3 19  2  0  0  0  0
  4  5  2  0  0  0  0
  4  9  1  0  0  0  0
  5  6  1  0  0  0  0
  5 24  1  0  0  0  0
  6  7  2  0  0  0  0
  6 25  1  0  0  0  0
  7 10  1  0  0  0  0
  8  7  1  0  0  0  0
  8 26  1  0  0  0  0
  9  8  2  0  0  0  0
  9 27  1  0  0  0  0
 10 11  1  0  0  0  0
 10 20  1  0  0  0  0
 10 21  1  0  0  0  0
 11 28  1  0  0  0  0
 11 29  1  0  0  0  0
 11 30  1  0  0  0  0
 12 15  1  0  0  0  0
 13  1  1  0  0  0  0
 13 14  1  0  0  0  0
 13 31  1  0  0  0  0
 13 32  1  0  0  0  0
 14  2  1  0  0  0  0
 14 15  1  0  0  0  0
 15 16  2  0  0  0  0
 16 17  1  0  0  0  0
 18  3  1  0  0  0  0
 18 33  1  0  0  0  0
 20 34  1  0  0  0  0
 20 35  1  0  0  0  0
 20 36  1  0  0  0  0
 21 37  1  0  0  0  0
 21 38  1  0  0  0  0
 21 39  1  0  0  0  0
M  END
