4ks2_ligand
 OpenBabel08222323353D

 49 49  0  0  1  0  0  0  0  0999 V2000
  -26.8480  -23.2820  -10.2960 C   0  0  0  0  0  0  0  0  0  0  0  0
  -25.7880  -22.2860  -10.8590 C   0  0  0  0  0  0  0  0  0  0  0  0
  -26.2610  -20.8150  -10.7000 C   0  0  0  0  0  0  0  0  0  0  0  0
  -27.8130  -20.7350  -10.8000 C   0  0  0  0  0  0  0  0  0  0  0  0
  -28.3690  -19.5580   -9.9940 C   0  0  0  0  0  0  0  0  0  0  0  0
  -25.7950  -20.2330   -9.4590 O   0  0  0  0  0  0  0  0  0  0  0  0
  -24.4290  -19.9190   -9.4990 C   0  0  2  0  0  0  0  0  0  0  0  0
  -23.7700  -20.8120   -8.4690 C   0  0  0  0  0  0  0  0  0  0  0  0
  -22.4960  -20.3720   -8.0370 C   0  0  0  0  0  0  0  0  0  0  0  0
  -21.7690  -21.3150   -7.2810 C   0  0  0  0  0  0  0  0  0  0  0  0
  -20.7220  -21.0290   -6.6660 O   0  5  0  0  0  0  0  0  0  0  0  0
  -22.1720  -22.4900   -7.2090 O   0  0  0  0  0  0  0  0  0  0  0  0
  -21.9950  -19.0810   -8.3380 C   0  0  0  0  0  0  0  0  0  0  0  0
  -22.6750  -18.1470   -9.1460 C   0  0  2  0  0  0  0  0  0  0  0  0
  -22.4840  -16.7060   -8.8100 N   0  0  0  0  0  0  0  0  0  0  0  0
  -22.3450  -15.6900   -9.6990 C   0  0  0  0  0  3  0  0  0  0  0  0
  -22.3720  -15.9230  -11.0040 N   0  0  0  0  0  0  0  0  0  0  0  0
  -22.1780  -14.4210   -9.2890 N   0  0  0  0  0  0  0  0  0  0  0  0
  -24.1840  -18.4280   -9.1940 C   0  0  1  0  0  0  0  0  0  0  0  0
  -24.7290  -17.5800  -10.2700 N   0  0  0  0  0  0  0  0  0  0  0  0
  -25.5230  -16.5050  -10.0900 C   0  0  0  0  0  0  0  0  0  0  0  0
  -25.8910  -16.1010   -8.9870 O   0  0  0  0  0  0  0  0  0  0  0  0
  -25.9600  -15.7890  -11.3420 C   0  0  0  0  0  0  0  0  0  0  0  0
  -26.4858  -24.3130  -10.4223 H   0  0  0  0  0  0  0  0  0  0  0  0
  -27.7950  -23.1567  -10.8414 H   0  0  0  0  0  0  0  0  0  0  0  0
  -27.0107  -23.0789   -9.2272 H   0  0  0  0  0  0  0  0  0  0  0  0
  -25.6274  -22.4980  -11.9263 H   0  0  0  0  0  0  0  0  0  0  0  0
  -24.8431  -22.4203  -10.3122 H   0  0  0  0  0  0  0  0  0  0  0  0
  -25.8338  -20.2300  -11.5278 H   0  0  0  0  0  0  0  0  0  0  0  0
  -28.2445  -21.6693  -10.4116 H   0  0  0  0  0  0  0  0  0  0  0  0
  -28.0969  -20.6109  -11.8554 H   0  0  0  0  0  0  0  0  0  0  0  0
  -29.4647  -19.5340  -10.0884 H   0  0  0  0  0  0  0  0  0  0  0  0
  -27.9472  -18.6180  -10.3792 H   0  0  0  0  0  0  0  0  0  0  0  0
  -28.0947  -19.6764   -8.9353 H   0  0  0  0  0  0  0  0  0  0  0  0
  -24.0255  -20.1437  -10.4973 H   0  0  0  0  0  0  0  0  0  0  0  0
  -24.2385  -21.7196   -8.0911 H   0  0  0  0  0  0  0  0  0  0  0  0
  -21.0208  -19.2430   -8.8224 H   0  0  0  0  0  0  0  0  0  0  0  0
  -21.8442  -18.5844   -7.3681 H   0  0  0  0  0  0  0  0  0  0  0  0
  -22.2797  -18.2863  -10.1630 H   0  0  0  0  0  0  0  0  0  0  0  0
  -22.4549  -16.4593   -7.8104 H   0  0  0  0  0  0  0  0  0  0  0  0
  -22.2654  -15.1434  -11.6686 H   0  0  0  0  0  0  0  0  0  0  0  0
  -22.4996  -16.8836  -11.3531 H   0  0  0  0  0  0  0  0  0  0  0  0
  -22.1523  -14.2042   -8.2824 H   0  0  0  0  0  0  0  0  0  0  0  0
  -22.0758  -13.6653   -9.9814 H   0  0  0  0  0  0  0  0  0  0  0  0
  -24.6520  -18.1686   -8.2329 H   0  0  0  0  0  0  0  0  0  0  0  0
  -24.4902  -17.8219  -11.2105 H   0  0  0  0  0  0  0  0  0  0  0  0
  -26.5990  -14.9353  -11.0721 H   0  0  0  0  0  0  0  0  0  0  0  0
  -26.5253  -16.4820  -11.9824 H   0  0  0  0  0  0  0  0  0  0  0  0
  -25.0747  -15.4269  -11.8853 H   0  0  0  0  0  0  0  0  0  0  0  0
  1  2  1  0  0  0  0
  1 24  1  0  0  0  0
  1 25  1  0  0  0  0
  1 26  1  0  0  0  0
  2  3  1  0  0  0  0
  2 27  1  0  0  0  0
  2 28  1  0  0  0  0
  3  4  1  0  0  0  0
  3  6  1  0  0  0  0
  3 29  1  0  0  0  0
  4  5  1  0  0  0  0
  4 30  1  0  0  0  0
  4 31  1  0  0  0  0
  5 32  1  0  0  0  0
  5 33  1  0  0  0  0
  5 34  1  0  0  0  0
  6  7  1  0  0  0  0
  7  8  1  0  0  0  0
  7 19  1  0  0  0  0
  7 35  1  6  0  0  0
  8  9  2  0  0  0  0
  8 36  1  0  0  0  0
  9 10  1  0  0  0  0
  9 13  1  0  0  0  0
 10 11  1  0  0  0  0
 10 12  2  0  0  0  0
 13 14  1  0  0  0  0
 13 37  1  0  0  0  0
 13 38  1  0  0  0  0
 14 15  1  0  0  0  0
 14 19  1  0  0  0  0
 14 39  1  6  0  0  0
 15 16  1  0  0  0  0
 15 40  1  0  0  0  0
 16 17  1  0  0  0  0
 16 18  1  0  0  0  0
 17 41  1  0  0  0  0
 17 42  1  0  0  0  0
 18 43  1  0  0  0  0
 18 44  1  0  0  0  0
 19 20  1  0  0  0  0
 19 45  1  1  0  0  0
 20 21  1  0  0  0  0
 20 46  1  0  0  0  0
 21 22  2  0  0  0  0
 21 23  1  0  0  0  0
 23 47  1  0  0  0  0
 23 48  1  0  0  0  0
 23 49  1  0  0  0  0
M  CHG  1  11  -1
M  END
