4ks5_ligand
 OpenBabel08222323353D

 57 58  0  0  1  0  0  0  0  0999 V2000
  -13.2600  -23.4170   12.4910 C   0  0  0  0  0  0  0  0  0  0  0  0
  -13.9000  -22.0510   12.4150 C   0  0  0  0  0  0  0  0  0  0  0  0
  -13.3810  -21.2110   11.2480 C   0  0  0  0  0  0  0  0  0  0  0  0
  -13.6230  -21.3990   13.6420 O   0  0  0  0  0  0  0  0  0  0  0  0
  -15.3740  -22.2980   12.2200 C   0  0  0  0  0  0  0  0  0  0  0  0
  -16.2420  -22.5090   13.1470 C   0  0  0  0  0  0  0  0  0  0  0  0
  -15.9780  -22.3180   11.0600 N   0  0  0  0  0  0  0  0  0  0  0  0
  -17.1020  -22.5280   11.2600 N   0  0  0  0  0  0  0  0  0  0  0  0
  -17.3320  -22.6510   12.4390 N   0  0  0  0  0  0  0  0  0  0  0  0
  -18.6760  -22.9190   12.9420 C   0  0  2  0  0  0  0  0  0  0  0  0
  -18.7640  -24.4250   13.1890 C   0  0  1  0  0  0  0  0  0  0  0  0
  -17.8020  -24.8080   14.2660 N   0  0  0  0  0  0  0  0  0  0  0  0
  -16.7020  -25.5810   14.0300 C   0  0  0  0  0  0  0  0  0  0  0  0
  -15.8900  -25.9200   14.8690 O   0  0  0  0  0  0  0  0  0  0  0  0
  -16.4930  -26.0300   12.5990 C   0  0  0  0  0  0  0  0  0  0  0  0
  -19.6770  -22.4720   12.0670 C   0  0  0  0  0  0  0  0  0  0  0  0
  -20.9300  -23.0930   11.9230 C   0  0  0  0  0  0  0  0  0  0  0  0
  -21.9540  -22.5000   11.1910 C   0  0  0  0  0  0  0  0  0  0  0  0
  -23.0930  -22.5930   11.6350 O   0  5  0  0  0  0  0  0  0  0  0  0
  -21.7530  -21.8950   10.1190 O   0  0  0  0  0  0  0  0  0  0  0  0
  -21.2380  -24.3140   12.5200 C   0  0  0  0  0  0  0  0  0  0  0  0
  -20.2370  -24.8700   13.4880 C   0  0  1  0  0  0  0  0  0  0  0  0
  -20.4480  -26.3130   13.4050 O   0  0  0  0  0  0  0  0  0  0  0  0
  -20.3670  -26.9720   14.6960 C   0  0  0  0  0  0  0  0  0  0  0  0
  -20.0740  -28.4640   14.5520 C   0  0  0  0  0  0  0  0  0  0  0  0
  -18.8110  -28.7290   13.7360 C   0  0  0  0  0  0  0  0  0  0  0  0
  -21.6320  -26.7620   15.5030 C   0  0  0  0  0  0  0  0  0  0  0  0
  -22.8700  -26.8950   14.6170 C   0  0  0  0  0  0  0  0  0  0  0  0
  -13.4495  -23.9633   11.5552 H   0  0  0  0  0  0  0  0  0  0  0  0
  -13.6889  -23.9764   13.3354 H   0  0  0  0  0  0  0  0  0  0  0  0
  -12.1755  -23.3062   12.6376 H   0  0  0  0  0  0  0  0  0  0  0  0
  -13.8839  -20.2327   11.2483 H   0  0  0  0  0  0  0  0  0  0  0  0
  -13.5898  -21.7303   10.3010 H   0  0  0  0  0  0  0  0  0  0  0  0
  -12.2959  -21.0655   11.3550 H   0  0  0  0  0  0  0  0  0  0  0  0
  -13.9488  -21.9278   14.3609 H   0  0  0  0  0  0  0  0  0  0  0  0
  -16.1056  -22.5563   14.2264 H   0  0  0  0  0  0  0  0  0  0  0  0
  -18.8072  -22.3928   13.8990 H   0  0  0  0  0  0  0  0  0  0  0  0
  -18.4511  -24.9378   12.2675 H   0  0  0  0  0  0  0  0  0  0  0  0
  -17.9707  -24.4851   15.1973 H   0  0  0  0  0  0  0  0  0  0  0  0
  -15.5811  -26.6419   12.5362 H   0  0  0  0  0  0  0  0  0  0  0  0
  -16.3884  -25.1483   11.9496 H   0  0  0  0  0  0  0  0  0  0  0  0
  -17.3577  -26.6260   12.2717 H   0  0  0  0  0  0  0  0  0  0  0  0
  -19.4710  -21.5901   11.4623 H   0  0  0  0  0  0  0  0  0  0  0  0
  -21.3679  -25.0532   11.7158 H   0  0  0  0  0  0  0  0  0  0  0  0
  -22.1880  -24.1890   13.0602 H   0  0  0  0  0  0  0  0  0  0  0  0
  -20.4828  -24.5258   14.5034 H   0  0  0  0  0  0  0  0  0  0  0  0
  -19.5329  -26.5169   15.2502 H   0  0  0  0  0  0  0  0  0  0  0  0
  -20.9267  -28.9455   14.0509 H   0  0  0  0  0  0  0  0  0  0  0  0
  -19.9452  -28.8979   15.5546 H   0  0  0  0  0  0  0  0  0  0  0  0
  -18.6437  -29.8136   13.6612 H   0  0  0  0  0  0  0  0  0  0  0  0
  -17.9489  -28.2584   14.2313 H   0  0  0  0  0  0  0  0  0  0  0  0
  -18.9304  -28.3060   12.7276 H   0  0  0  0  0  0  0  0  0  0  0  0
  -21.6132  -25.7560   15.9475 H   0  0  0  0  0  0  0  0  0  0  0  0
  -21.6786  -27.5156   16.3030 H   0  0  0  0  0  0  0  0  0  0  0  0
  -23.7739  -26.7388   15.2241 H   0  0  0  0  0  0  0  0  0  0  0  0
  -22.8963  -27.9008   14.1723 H   0  0  0  0  0  0  0  0  0  0  0  0
  -22.8310  -26.1412   13.8169 H   0  0  0  0  0  0  0  0  0  0  0  0
  1  2  1  0  0  0  0
  1 29  1  0  0  0  0
  1 30  1  0  0  0  0
  1 31  1  0  0  0  0
  2  3  1  0  0  0  0
  2  4  1  0  0  0  0
  2  5  1  0  0  0  0
  3 32  1  0  0  0  0
  3 33  1  0  0  0  0
  3 34  1  0  0  0  0
  4 35  1  0  0  0  0
  5  6  2  0  0  0  0
  5  7  1  0  0  0  0
  6  9  1  0  0  0  0
  6 36  1  0  0  0  0
  7  8  2  0  0  0  0
  8  9  1  0  0  0  0
  9 10  1  0  0  0  0
 10 11  1  0  0  0  0
 10 16  1  0  0  0  0
 10 37  1  1  0  0  0
 11 12  1  0  0  0  0
 11 22  1  0  0  0  0
 11 38  1  6  0  0  0
 12 13  1  0  0  0  0
 12 39  1  0  0  0  0
 13 14  2  0  0  0  0
 13 15  1  0  0  0  0
 15 40  1  0  0  0  0
 15 41  1  0  0  0  0
 15 42  1  0  0  0  0
 16 17  2  0  0  0  0
 16 43  1  0  0  0  0
 17 18  1  0  0  0  0
 17 21  1  0  0  0  0
 18 19  1  0  0  0  0
 18 20  2  0  0  0  0
 21 22  1  0  0  0  0
 21 44  1  0  0  0  0
 21 45  1  0  0  0  0
 22 23  1  0  0  0  0
 22 46  1  1  0  0  0
 23 24  1  0  0  0  0
 24 25  1  0  0  0  0
 24 27  1  0  0  0  0
 24 47  1  0  0  0  0
 25 26  1  0  0  0  0
 25 48  1  0  0  0  0
 25 49  1  0  0  0  0
 26 50  1  0  0  0  0
 26 51  1  0  0  0  0
 26 52  1  0  0  0  0
 27 28  1  0  0  0  0
 27 53  1  0  0  0  0
 27 54  1  0  0  0  0
 28 55  1  0  0  0  0
 28 56  1  0  0  0  0
 28 57  1  0  0  0  0
M  CHG  1  19  -1
M  END
