4ktc_ligand
 OpenBabel08222323353D

103109  0  0  1  0  0  0  0  0999 V2000
   49.6080   36.8150  109.5810 C   0  0  0  0  0  0  0  0  0  0  0  0
   50.5150   37.5950  109.8870 O   0  0  0  0  0  0  0  0  0  0  0  0
   48.4160   36.8150  110.1350 O   0  0  0  0  0  0  0  0  0  0  0  0
   48.1400   37.7140  111.2030 C   0  0  0  0  0  0  0  0  0  0  0  0
   46.9270   37.2310  112.0020 C   0  0  0  0  0  0  0  0  0  0  0  0
   45.7350   37.7920  111.2160 C   0  0  0  0  0  0  0  0  0  0  0  0
   46.2430   38.9810  110.3870 C   0  0  0  0  0  0  0  0  0  0  0  0
   47.7540   39.0890  110.6460 C   0  0  0  0  0  0  0  0  0  0  0  0
   50.6350   36.6390  106.5790 C   0  0  0  0  0  0  0  0  0  0  0  0
   50.8960   35.6970  107.7670 C   0  0  1  0  0  0  0  0  0  0  0  0
   49.6090   36.4420  105.9270 O   0  0  0  0  0  0  0  0  0  0  0  0
   49.7660   35.7720  108.6990 N   0  0  0  0  0  0  0  0  0  0  0  0
   51.1180   34.2370  107.3120 C   0  0  0  0  0  0  0  0  0  0  0  0
   52.3690   34.1910  106.4000 C   0  0  0  0  0  0  0  0  0  0  0  0
   52.4360   32.8350  105.6560 C   0  0  0  0  0  0  0  0  0  0  0  0
   52.1680   33.0360  104.1460 C   0  0  0  0  0  0  0  0  0  0  0  0
   50.6450   33.0120  103.9090 C   0  0  0  0  0  0  0  0  0  0  0  0
   48.2770   36.6650  101.7570 C   0  0  0  0  0  0  0  0  0  0  0  0
   49.7710   36.8700  101.9330 C   0  0  2  0  0  0  0  0  0  0  0  0
   49.1040   35.6370  102.5110 C   0  0  2  0  0  0  0  0  0  0  0  0
   50.2230   37.8240  102.9080 N   0  0  0  0  0  0  0  0  0  0  0  0
   50.4200   35.9620   99.7550 O   0  0  0  0  0  0  0  0  0  0  0  0
   50.6880   36.8090  100.7300 C   0  0  0  0  0  0  0  0  0  0  0  0
   49.3450   34.2400  102.0070 C   0  0  0  0  0  0  0  0  0  0  0  0
   50.2090   33.3050  102.4590 C   0  0  0  0  0  0  0  0  0  0  0  0
   51.6370   37.7340  100.6250 N   0  0  0  0  0  0  0  0  0  0  0  0
   52.5470   37.8050   99.2040 S   0  0  0  0  0  0  0  0  0  0  0  0
   53.1850   36.5050   98.9700 O   0  0  0  0  0  0  0  0  0  0  0  0
   51.6790   38.3530   98.1440 O   0  0  0  0  0  0  0  0  0  0  0  0
   53.8420   39.0730   99.5670 C   0  0  0  0  0  0  0  0  0  0  0  0
   54.6220   39.4720   98.3320 C   0  0  0  0  0  0  0  0  0  0  0  0
   53.5580   40.3960   98.8820 C   0  0  0  0  0  0  0  0  0  0  0  0
   51.5530   37.5950  106.2260 N   0  0  0  0  0  0  0  0  0  0  0  0
   51.3840   38.4900  105.0670 C   0  0  2  0  0  0  0  0  0  0  0  0
   51.3140   37.7110  103.7460 C   0  0  0  0  0  0  0  0  0  0  0  0
   52.2240   36.9090  103.5490 O   0  0  0  0  0  0  0  0  0  0  0  0
   52.5680   39.4740  105.1180 C   0  0  0  0  0  0  0  0  0  0  0  0
   52.9120   39.5030  106.6120 C   0  0  2  0  0  0  0  0  0  0  0  0
   52.6370   38.0710  107.0950 C   0  0  0  0  0  0  0  0  0  0  0  0
   52.0530   40.4060  107.3110 O   0  0  0  0  0  0  0  0  0  0  0  0
   52.0520   41.7020  107.0810 C   0  0  0  0  0  0  0  0  0  0  0  0
   51.0200   42.3120  107.7580 N   0  0  0  0  0  0  0  0  0  0  0  0
   53.0340   42.3220  106.6710 O   0  0  0  0  0  0  0  0  0  0  0  0
   50.9420   43.7750  107.9540 C   0  0  0  0  0  0  0  0  0  0  0  0
   49.6740   44.2620  108.6650 C   0  0  0  0  0  0  0  0  0  0  0  0
   48.6100   43.3720  108.9370 C   0  0  0  0  0  0  0  0  0  0  0  0
   48.7700   41.9340  108.5200 C   0  0  0  0  0  0  0  0  0  0  0  0
   50.2310   41.5690  108.7450 C   0  0  0  0  0  0  0  0  0  0  0  0
   49.5490   45.6120  109.0440 C   0  0  0  0  0  0  0  0  0  0  0  0
   48.3710   46.0350  109.6990 C   0  0  0  0  0  0  0  0  0  0  0  0
   47.3200   45.1330  109.9780 C   0  0  0  0  0  0  0  0  0  0  0  0
   47.4320   43.7840  109.5980 C   0  0  0  0  0  0  0  0  0  0  0  0
   49.0223   37.7959  111.8548 H   0  0  0  0  0  0  0  0  0  0  0  0
   46.9460   37.6313  113.0264 H   0  0  0  0  0  0  0  0  0  0  0  0
   46.8921   36.1322  112.0383 H   0  0  0  0  0  0  0  0  0  0  0  0
   44.9515   38.1273  111.9115 H   0  0  0  0  0  0  0  0  0  0  0  0
   45.3271   37.0175  110.5499 H   0  0  0  0  0  0  0  0  0  0  0  0
   45.7377   39.9059  110.7021 H   0  0  0  0  0  0  0  0  0  0  0  0
   46.0536   38.8057  109.3177 H   0  0  0  0  0  0  0  0  0  0  0  0
   48.2959   39.2975  109.7117 H   0  0  0  0  0  0  0  0  0  0  0  0
   47.9684   39.8809  111.3788 H   0  0  0  0  0  0  0  0  0  0  0  0
   51.8048   36.0365  108.2855 H   0  0  0  0  0  0  0  0  0  0  0  0
   49.0863   35.0385  108.6928 H   0  0  0  0  0  0  0  0  0  0  0  0
   50.2384   33.8847  106.7532 H   0  0  0  0  0  0  0  0  0  0  0  0
   51.2757   33.5944  108.1907 H   0  0  0  0  0  0  0  0  0  0  0  0
   53.2725   34.3132  107.0154 H   0  0  0  0  0  0  0  0  0  0  0  0
   52.3132   35.0070  105.6645 H   0  0  0  0  0  0  0  0  0  0  0  0
   51.6774   32.1554  106.0716 H   0  0  0  0  0  0  0  0  0  0  0  0
   53.4354   32.3959  105.7916 H   0  0  0  0  0  0  0  0  0  0  0  0
   52.6447   32.2263  103.5741 H   0  0  0  0  0  0  0  0  0  0  0  0
   52.5780   34.0041  103.8225 H   0  0  0  0  0  0  0  0  0  0  0  0
   50.1854   33.7674  104.5633 H   0  0  0  0  0  0  0  0  0  0  0  0
   50.2722   32.0140  104.1829 H   0  0  0  0  0  0  0  0  0  0  0  0
   47.8679   36.4219  100.7653 H   0  0  0  0  0  0  0  0  0  0  0  0
   47.5660   37.3048  102.3002 H   0  0  0  0  0  0  0  0  0  0  0  0
   48.9879   35.5744  103.6031 H   0  0  0  0  0  0  0  0  0  0  0  0
   49.6868   38.6643  102.9884 H   0  0  0  0  0  0  0  0  0  0  0  0
   49.6191   34.3755  100.9504 H   0  0  0  0  0  0  0  0  0  0  0  0
   48.3603   33.7540  102.0710 H   0  0  0  0  0  0  0  0  0  0  0  0
   49.7944   32.3517  102.0992 H   0  0  0  0  0  0  0  0  0  0  0  0
   51.1482   33.5200  101.9283 H   0  0  0  0  0  0  0  0  0  0  0  0
   51.8087   38.3753  101.3728 H   0  0  0  0  0  0  0  0  0  0  0  0
   54.2873   38.9862  100.5691 H   0  0  0  0  0  0  0  0  0  0  0  0
   54.4539   38.9445   97.3815 H   0  0  0  0  0  0  0  0  0  0  0  0
   55.6842   39.7448   98.4171 H   0  0  0  0  0  0  0  0  0  0  0  0
   53.8467   41.3399   99.3675 H   0  0  0  0  0  0  0  0  0  0  0  0
   52.6163   40.5396   98.3319 H   0  0  0  0  0  0  0  0  0  0  0  0
   50.4450   39.0522  105.1774 H   0  0  0  0  0  0  0  0  0  0  0  0
   52.2722   40.4708  104.7589 H   0  0  0  0  0  0  0  0  0  0  0  0
   53.4163   39.1064  104.5220 H   0  0  0  0  0  0  0  0  0  0  0  0
   53.9638   39.7838  106.7695 H   0  0  0  0  0  0  0  0  0  0  0  0
   53.5325   37.4427  106.9801 H   0  0  0  0  0  0  0  0  0  0  0  0
   52.3206   38.0695  108.1485 H   0  0  0  0  0  0  0  0  0  0  0  0
   50.9859   44.2555  106.9655 H   0  0  0  0  0  0  0  0  0  0  0  0
   51.8108   44.0869  108.5522 H   0  0  0  0  0  0  0  0  0  0  0  0
   48.5100   41.8169  107.4576 H   0  0  0  0  0  0  0  0  0  0  0  0
   48.1206   41.2887  109.1297 H   0  0  0  0  0  0  0  0  0  0  0  0
   50.5377   41.8517  109.7628 H   0  0  0  0  0  0  0  0  0  0  0  0
   50.3750   40.4874  108.6058 H   0  0  0  0  0  0  0  0  0  0  0  0
   50.3456   46.3172  108.8361 H   0  0  0  0  0  0  0  0  0  0  0  0
   48.2714   47.0734  109.9937 H   0  0  0  0  0  0  0  0  0  0  0  0
   46.4273   45.4810  110.4850 H   0  0  0  0  0  0  0  0  0  0  0  0
   46.6355   43.0790  109.8068 H   0  0  0  0  0  0  0  0  0  0  0  0
  1  2  2  0  0  0  0
  1  3  1  0  0  0  0
  3  4  1  0  0  0  0
  4  5  1  0  0  0  0
  4  8  1  0  0  0  0
  4 53  1  0  0  0  0
  5  6  1  0  0  0  0
  5 54  1  0  0  0  0
  5 55  1  0  0  0  0
  6 56  1  0  0  0  0
  6 57  1  0  0  0  0
  7  6  1  0  0  0  0
  7 58  1  0  0  0  0
  7 59  1  0  0  0  0
  8  7  1  0  0  0  0
  8 60  1  0  0  0  0
  8 61  1  0  0  0  0
  9 11  2  0  0  0  0
  9 33  1  0  0  0  0
 10  9  1  0  0  0  0
 10 12  1  0  0  0  0
 10 62  1  1  0  0  0
 12  1  1  0  0  0  0
 12 63  1  0  0  0  0
 13 10  1  0  0  0  0
 13 64  1  0  0  0  0
 13 65  1  0  0  0  0
 14 13  1  0  0  0  0
 14 66  1  0  0  0  0
 14 67  1  0  0  0  0
 15 14  1  0  0  0  0
 15 68  1  0  0  0  0
 15 69  1  0  0  0  0
 16 15  1  0  0  0  0
 16 70  1  0  0  0  0
 16 71  1  0  0  0  0
 17 16  1  0  0  0  0
 17 72  1  0  0  0  0
 17 73  1  0  0  0  0
 18 74  1  0  0  0  0
 18 75  1  0  0  0  0
 19 18  1  0  0  0  0
 19 21  1  0  0  0  0
 19 23  1  6  0  0  0
 20 18  1  0  0  0  0
 20 19  1  0  0  0  0
 20 76  1  1  0  0  0
 21 35  1  0  0  0  0
 21 77  1  0  0  0  0
 23 22  2  0  0  0  0
 23 26  1  0  0  0  0
 24 20  1  0  0  0  0
 24 25  1  0  0  0  0
 24 78  1  0  0  0  0
 24 79  1  0  0  0  0
 25 17  1  0  0  0  0
 25 80  1  0  0  0  0
 25 81  1  0  0  0  0
 26 27  1  0  0  0  0
 26 82  1  0  0  0  0
 27 28  2  0  0  0  0
 27 29  2  0  0  0  0
 27 30  1  0  0  0  0
 30 31  1  0  0  0  0
 30 32  1  0  0  0  0
 30 83  1  0  0  0  0
 31 32  1  0  0  0  0
 31 84  1  0  0  0  0
 31 85  1  0  0  0  0
 32 86  1  0  0  0  0
 32 87  1  0  0  0  0
 33 34  1  0  0  0  0
 33 39  1  0  0  0  0
 34 35  1  0  0  0  0
 34 37  1  0  0  0  0
 34 88  1  1  0  0  0
 35 36  2  0  0  0  0
 37 38  1  0  0  0  0
 37 89  1  0  0  0  0
 37 90  1  0  0  0  0
 38 39  1  0  0  0  0
 38 40  1  0  0  0  0
 38 91  1  1  0  0  0
 39 92  1  0  0  0  0
 39 93  1  0  0  0  0
 40 41  1  0  0  0  0
 41 42  1  0  0  0  0
 41 43  2  0  0  0  0
 42 44  1  0  0  0  0
 42 48  1  0  0  0  0
 44 45  1  0  0  0  0
 44 94  1  0  0  0  0
 44 95  1  0  0  0  0
 45 46  2  0  0  0  0
 45 49  1  0  0  0  0
 46 47  1  0  0  0  0
 46 52  1  0  0  0  0
 47 48  1  0  0  0  0
 47 96  1  0  0  0  0
 47 97  1  0  0  0  0
 48 98  1  0  0  0  0
 48 99  1  0  0  0  0
 49 50  2  0  0  0  0
 49100  1  0  0  0  0
 50 51  1  0  0  0  0
 50101  1  0  0  0  0
 51 52  2  0  0  0  0
 51102  1  0  0  0  0
 52103  1  0  0  0  0
M  END
