4ktu_ligand
 OpenBabel08222323353D

202208  0  0  1  0  0  0  0  0999 V2000
   32.0720  -18.8540   85.0110 C   0  0  0  0  0  0  0  0  0  0  0  0
   31.8390  -19.1110   83.8620 O   0  0  0  0  0  0  0  0  0  0  0  0
   32.9510  -19.7900   85.7950 C   0  0  0  0  0  0  0  0  0  0  0  0
   31.6050  -17.7570   85.5930 N   0  0  0  0  0  0  0  0  0  0  0  0
   30.6960  -16.8350   84.8780 C   0  0  2  0  0  0  0  0  0  0  0  0
   31.4430  -15.8510   84.0400 C   0  0  0  0  0  0  0  0  0  0  0  0
   32.0260  -14.9070   84.5780 O   0  0  0  0  0  0  0  0  0  0  0  0
   29.6890  -16.0870   85.7740 C   0  0  2  0  0  0  0  0  0  0  0  0
   28.7840  -17.0780   86.5440 C   0  0  0  0  0  0  0  0  0  0  0  0
   28.8200  -15.1370   84.9530 C   0  0  0  0  0  0  0  0  0  0  0  0
   27.8950  -16.4330   87.5960 C   0  0  0  0  0  0  0  0  0  0  0  0
   31.3730  -16.0000   82.7220 N   0  0  0  0  0  0  0  0  0  0  0  0
   31.9370  -15.0430   81.8210 C   0  0  2  0  0  0  0  0  0  0  0  0
   30.8480  -14.5660   80.8400 C   0  0  0  0  0  0  0  0  0  0  0  0
   30.3650  -15.3440   80.0240 O   0  0  0  0  0  0  0  0  0  0  0  0
   33.0750  -15.6330   81.0550 C   0  0  0  0  0  0  0  0  0  0  0  0
   33.5590  -14.7970   80.2190 O   0  0  0  0  0  0  0  0  0  0  0  0
   30.4180  -13.3170   80.9820 N   0  0  0  0  0  0  0  0  0  0  0  0
   29.4160  -12.7870   80.0980 C   0  0  2  0  0  0  0  0  0  0  0  0
   29.9480  -12.6970   78.6700 C   0  0  0  0  0  0  0  0  0  0  0  0
   31.1650  -12.6710   78.3790 O   0  0  0  0  0  0  0  0  0  0  0  0
   28.8900  -11.4380   80.6270 C   0  0  2  0  0  0  0  0  0  0  0  0
   29.9830  -10.6080   81.0680 O   0  0  0  0  0  0  0  0  0  0  0  0
   27.9940  -11.6210   81.8280 C   0  0  0  0  0  0  0  0  0  0  0  0
   29.0500  -12.6280   77.7140 N   0  0  0  0  0  0  0  0  0  0  0  0
   29.3360  -12.7620   76.2880 C   0  0  2  0  0  0  0  0  0  0  0  0
   29.1790  -11.4600   75.4650 C   0  0  0  0  0  0  0  0  0  0  0  0
   28.9000  -11.4920   74.2690 O   0  0  0  0  0  0  0  0  0  0  0  0
   28.6010  -13.9520   75.6950 C   0  0  0  0  0  0  0  0  0  0  0  0
   29.2180  -15.2280   76.2270 C   0  0  0  0  0  0  0  0  0  0  0  0
   28.4920  -16.5360   75.8850 C   0  0  0  0  0  0  0  0  0  0  0  0
   29.3520  -17.6680   76.3350 N   0  0  0  0  0  0  0  0  0  0  0  0
   29.0680  -18.9450   76.0230 C   0  0  0  0  0  3  0  0  0  0  0  0
   27.9280  -19.2740   75.4260 N   0  0  0  0  0  0  0  0  0  0  0  0
   29.9100  -19.8880   76.4290 N   0  0  0  0  0  0  0  0  0  0  0  0
   29.4640  -10.3280   76.1340 N   0  0  0  0  0  0  0  0  0  0  0  0
   29.5690   -9.0520   75.3980 C   0  0  2  0  0  0  0  0  0  0  0  0
   30.9300   -8.9490   74.7180 C   0  0  0  0  0  0  0  0  0  0  0  0
   31.8890   -9.6120   75.1520 O   0  0  0  0  0  0  0  0  0  0  0  0
   29.3360   -7.9460   76.4040 C   0  0  0  0  0  0  0  0  0  0  0  0
   29.4890   -6.5200   75.8590 C   0  0  0  0  0  0  0  0  0  0  0  0
   28.8560   -5.4680   76.7770 C   0  0  0  0  0  0  0  0  0  0  0  0
   29.3960   -4.0600   76.5190 C   0  0  0  0  0  0  0  0  0  0  0  0
   30.8000   -3.9450   76.8780 N   0  0  0  0  0  0  0  0  0  0  0  0
   31.0060   -8.1950   73.6510 N   0  0  0  0  0  0  0  0  0  0  0  0
   32.2520   -7.9500   72.9210 C   0  0  2  0  0  0  0  0  0  0  0  0
   32.9070   -6.6280   73.4210 C   0  0  0  0  0  0  0  0  0  0  0  0
   32.1910   -5.6470   73.5790 O   0  0  0  0  0  0  0  0  0  0  0  0
   32.0000   -7.8400   71.4210 C   0  0  0  0  0  0  0  0  0  0  0  0
   33.2280   -7.3800   70.6470 C   0  0  0  0  0  0  0  0  0  0  0  0
   33.4310   -6.0510   70.4970 C   0  0  0  0  0  0  0  0  0  0  0  0
   34.1490   -8.2400   70.1240 C   0  0  0  0  0  0  0  0  0  0  0  0
   34.5570   -5.5840   69.8180 C   0  0  0  0  0  0  0  0  0  0  0  0
   35.2790   -7.7940   69.3900 C   0  0  0  0  0  0  0  0  0  0  0  0
   35.4460   -6.4450   69.2740 C   0  0  0  0  0  0  0  0  0  0  0  0
   36.5450   -5.9450   68.6250 O   0  0  0  0  0  0  0  0  0  0  0  0
   34.2510   -6.6220   73.6070 N   0  0  0  0  0  0  0  0  0  0  0  0
   35.1520   -7.7480   73.4430 C   0  0  2  0  0  0  0  0  0  0  0  0
   35.0890   -8.7420   74.6010 C   0  0  0  0  0  0  0  0  0  0  0  0
   35.4640   -9.9160   74.4290 O   0  0  0  0  0  0  0  0  0  0  0  0
   36.5450   -7.0970   73.3740 C   0  0  0  0  0  0  0  0  0  0  0  0
   36.3480   -5.7580   73.8770 C   0  0  0  0  0  0  0  0  0  0  0  0
   34.9340   -5.3190   73.7780 C   0  0  0  0  0  0  0  0  0  0  0  0
   34.6630   -8.2670   75.7430 N   0  0  0  0  0  0  0  0  0  0  0  0
   34.4050   -9.0310   76.9300 C   0  0  2  0  0  0  0  0  0  0  0  0
   33.6010   -8.2330   77.9140 C   0  0  0  0  0  0  0  0  0  0  0  0
   33.4270   -6.9750   77.6810 O   0  0  0  0  0  0  0  0  0  0  0  0
   35.7310   -9.4780   77.5690 C   0  0  0  0  0  0  0  0  0  0  0  0
   36.4120   -8.2780   77.9580 O   0  0  0  0  0  0  0  0  0  0  0  0
   33.0820   -8.7850   78.9820 N   0  0  0  0  0  0  0  0  0  0  0  0
   32.3390   -8.0170   79.9670 C   0  0  2  0  0  0  0  0  0  0  0  0
   33.3210   -7.1070   80.7390 C   0  0  0  0  0  0  0  0  0  0  0  0
   33.1040   -5.9170   80.9050 O   0  0  0  0  0  0  0  0  0  0  0  0
   31.5430   -8.9280   80.8940 C   0  0  0  0  0  0  0  0  0  0  0  0
   30.4790   -9.7670   80.1610 C   0  0  0  0  0  0  0  0  0  0  0  0
   30.2440   -9.6380   78.9980 O   0  0  0  0  0  0  0  0  0  0  0  0
   34.4480   -7.6390   81.1470 N   0  0  0  0  0  0  0  0  0  0  0  0
   35.4280   -6.8910   81.9460 C   0  0  2  0  0  0  0  0  0  0  0  0
   36.1010   -5.7930   81.1050 C   0  0  0  0  0  0  0  0  0  0  0  0
   36.6180   -4.7850   81.7110 O   0  0  0  0  0  0  0  0  0  0  0  0
   36.4070   -7.9120   82.5520 C   0  0  0  0  0  0  0  0  0  0  0  0
   37.2270   -8.5910   81.5670 C   0  0  0  0  0  0  0  0  0  0  0  0
   37.0200   -9.8220   81.0230 C   0  0  0  0  0  0  0  0  0  0  0  0
   38.4680   -8.1320   81.0600 C   0  0  0  0  0  0  0  0  0  0  0  0
   38.0260  -10.1190   80.1480 N   0  0  0  0  0  0  0  0  0  0  0  0
   38.9390   -9.1110   80.1550 C   0  0  0  0  0  0  0  0  0  0  0  0
   39.2170   -6.9790   81.2500 C   0  0  0  0  0  0  0  0  0  0  0  0
   40.1770   -9.0030   79.5150 C   0  0  0  0  0  0  0  0  0  0  0  0
   40.4460   -6.8510   80.5700 C   0  0  0  0  0  0  0  0  0  0  0  0
   40.8840   -7.8600   79.6960 C   0  0  0  0  0  0  0  0  0  0  0  0
   36.2430   -5.9650   79.8170 N   0  0  0  0  0  0  0  0  0  0  0  0
   37.0200   -5.0270   78.9850 C   0  0  2  0  0  0  0  0  0  0  0  0
   36.4170   -3.6710   78.7640 C   0  0  0  0  0  0  0  0  0  0  0  0
   37.1250   -2.7430   78.3370 O   0  0  0  0  0  0  0  0  0  0  0  0
   37.2930   -5.5760   77.6270 C   0  0  0  0  0  0  0  0  0  0  0  0
   38.1730   -6.7550   77.5970 C   0  0  0  0  0  0  0  0  0  0  0  0
   37.5210   -8.0370   77.2240 C   0  0  0  0  0  0  0  0  0  0  0  0
   38.0290   -8.8320   76.4640 O   0  0  0  0  0  0  0  0  0  0  0  0
   35.1240   -3.5270   79.0960 N   0  0  0  0  0  0  0  0  0  0  0  0
   34.4340   -2.2720   78.9180 C   0  0  2  0  0  0  0  0  0  0  0  0
   34.5270   -1.4770   80.2460 C   0  0  0  0  0  0  0  0  0  0  0  0
   33.8610   -0.4900   80.4910 O   0  5  0  0  0  0  0  0  0  0  0  0
   33.0090   -2.5540   78.3860 C   0  0  0  0  0  0  0  0  0  0  0  0
   33.1430   -3.2040   76.9480 C   0  0  0  0  0  0  0  0  0  0  0  0
   31.8450   -3.3340   76.1840 C   0  0  0  0  0  0  0  0  0  0  0  0
   31.5700   -2.8310   75.0800 O   0  0  0  0  0  0  0  0  0  0  0  0
   33.0639  -19.4129   86.8222 H   0  0  0  0  0  0  0  0  0  0  0  0
   33.9395  -19.8519   85.3165 H   0  0  0  0  0  0  0  0  0  0  0  0
   32.4923  -20.7895   85.8197 H   0  0  0  0  0  0  0  0  0  0  0  0
   31.8729  -17.5494   86.5338 H   0  0  0  0  0  0  0  0  0  0  0  0
   30.1034  -17.4604   84.1942 H   0  0  0  0  0  0  0  0  0  0  0  0
   30.2572  -15.4940   86.5057 H   0  0  0  0  0  0  0  0  0  0  0  0
   29.4293  -17.8150   87.0445 H   0  0  0  0  0  0  0  0  0  0  0  0
   28.1382  -17.5906   85.8158 H   0  0  0  0  0  0  0  0  0  0  0  0
   29.4633  -14.4324   84.4055 H   0  0  0  0  0  0  0  0  0  0  0  0
   28.1523  -14.5777   85.6248 H   0  0  0  0  0  0  0  0  0  0  0  0
   28.2185  -15.7164   84.2372 H   0  0  0  0  0  0  0  0  0  0  0  0
   27.2902  -17.2077   88.0900 H   0  0  0  0  0  0  0  0  0  0  0  0
   27.2303  -15.7002   87.1152 H   0  0  0  0  0  0  0  0  0  0  0  0
   28.5214  -15.9246   88.3438 H   0  0  0  0  0  0  0  0  0  0  0  0
   30.9123  -16.8052   82.3486 H   0  0  0  0  0  0  0  0  0  0  0  0
   32.3056  -14.1829   82.3992 H   0  0  0  0  0  0  0  0  0  0  0  0
   32.7177  -16.5185   80.5090 H   0  0  0  0  0  0  0  0  0  0  0  0
   33.8646  -15.9311   81.7605 H   0  0  0  0  0  0  0  0  0  0  0  0
   34.2788  -15.2014   79.7491 H   0  0  0  0  0  0  0  0  0  0  0  0
   30.7938  -12.7418   81.7086 H   0  0  0  0  0  0  0  0  0  0  0  0
   28.5695  -13.4894   80.0890 H   0  0  0  0  0  0  0  0  0  0  0  0
   28.3349  -10.9327   79.8230 H   0  0  0  0  0  0  0  0  0  0  0  0
   27.6403  -10.6388   82.1746 H   0  0  0  0  0  0  0  0  0  0  0  0
   28.5575  -12.1132   82.6343 H   0  0  0  0  0  0  0  0  0  0  0  0
   27.1312  -12.2443   81.5503 H   0  0  0  0  0  0  0  0  0  0  0  0
   28.0994  -12.4721   77.9825 H   0  0  0  0  0  0  0  0  0  0  0  0
   30.4057  -13.0106   76.2250 H   0  0  0  0  0  0  0  0  0  0  0  0
   28.6875  -13.9299   74.5986 H   0  0  0  0  0  0  0  0  0  0  0  0
   27.5394  -13.9091   75.9800 H   0  0  0  0  0  0  0  0  0  0  0  0
   29.2605  -15.1466   77.3231 H   0  0  0  0  0  0  0  0  0  0  0  0
   30.2393  -15.2980   75.8246 H   0  0  0  0  0  0  0  0  0  0  0  0
   28.3281  -16.5998   74.7992 H   0  0  0  0  0  0  0  0  0  0  0  0
   27.5233  -16.5729   76.4048 H   0  0  0  0  0  0  0  0  0  0  0  0
   30.1882  -17.4660   76.9015 H   0  0  0  0  0  0  0  0  0  0  0  0
   27.7323  -20.2589   75.1967 H   0  0  0  0  0  0  0  0  0  0  0  0
   27.2397  -18.5442   75.1924 H   0  0  0  0  0  0  0  0  0  0  0  0
   30.7924  -19.6262   76.8913 H   0  0  0  0  0  0  0  0  0  0  0  0
   29.6808  -20.8813   76.2816 H   0  0  0  0  0  0  0  0  0  0  0  0
   29.6039  -10.3505   77.1239 H   0  0  0  0  0  0  0  0  0  0  0  0
   28.7883   -9.0060   74.6245 H   0  0  0  0  0  0  0  0  0  0  0  0
   30.0574   -8.0753   77.2242 H   0  0  0  0  0  0  0  0  0  0  0  0
   28.3133   -8.0523   76.7949 H   0  0  0  0  0  0  0  0  0  0  0  0
   29.0038   -6.4654   74.8733 H   0  0  0  0  0  0  0  0  0  0  0  0
   30.5608   -6.2962   75.7530 H   0  0  0  0  0  0  0  0  0  0  0  0
   29.0664   -5.7399   77.8219 H   0  0  0  0  0  0  0  0  0  0  0  0
   27.7686   -5.4641   76.6109 H   0  0  0  0  0  0  0  0  0  0  0  0
   28.8159   -3.3413   77.1165 H   0  0  0  0  0  0  0  0  0  0  0  0
   29.2816   -3.8252   75.4505 H   0  0  0  0  0  0  0  0  0  0  0  0
   31.0539   -4.3650   77.7493 H   0  0  0  0  0  0  0  0  0  0  0  0
   30.1686   -7.7630   73.3162 H   0  0  0  0  0  0  0  0  0  0  0  0
   32.9406   -8.7875   73.1065 H   0  0  0  0  0  0  0  0  0  0  0  0
   31.1881   -7.1170   71.2534 H   0  0  0  0  0  0  0  0  0  0  0  0
   31.6959   -8.8271   71.0427 H   0  0  0  0  0  0  0  0  0  0  0  0
   32.7162   -5.3461   70.9059 H   0  0  0  0  0  0  0  0  0  0  0  0
   34.0125   -9.3048   70.2748 H   0  0  0  0  0  0  0  0  0  0  0  0
   34.7211   -4.5165   69.7255 H   0  0  0  0  0  0  0  0  0  0  0  0
   35.9767   -8.4926   68.9425 H   0  0  0  0  0  0  0  0  0  0  0  0
   36.5501   -6.2562   67.7274 H   0  0  0  0  0  0  0  0  0  0  0  0
   34.9252   -8.2794   72.5070 H   0  0  0  0  0  0  0  0  0  0  0  0
   36.9108   -7.0720   72.3369 H   0  0  0  0  0  0  0  0  0  0  0  0
   37.2616   -7.6461   74.0025 H   0  0  0  0  0  0  0  0  0  0  0  0
   36.9743   -5.0661   73.2947 H   0  0  0  0  0  0  0  0  0  0  0  0
   36.6538   -5.7288   74.9332 H   0  0  0  0  0  0  0  0  0  0  0  0
   34.6043   -4.8060   74.6935 H   0  0  0  0  0  0  0  0  0  0  0  0
   34.7740   -4.6611   72.9111 H   0  0  0  0  0  0  0  0  0  0  0  0
   34.5024   -7.2813   75.7934 H   0  0  0  0  0  0  0  0  0  0  0  0
   33.8288   -9.9257   76.6517 H   0  0  0  0  0  0  0  0  0  0  0  0
   36.3346  -10.0401   76.8412 H   0  0  0  0  0  0  0  0  0  0  0  0
   35.5367  -10.1085   78.4491 H   0  0  0  0  0  0  0  0  0  0  0  0
   33.2008   -9.7676   79.1246 H   0  0  0  0  0  0  0  0  0  0  0  0
   31.6224   -7.3737   79.4353 H   0  0  0  0  0  0  0  0  0  0  0  0
   31.0379   -8.3045   81.6464 H   0  0  0  0  0  0  0  0  0  0  0  0
   32.2427   -9.6130   81.3952 H   0  0  0  0  0  0  0  0  0  0  0  0
   34.6477   -8.5886   80.9054 H   0  0  0  0  0  0  0  0  0  0  0  0
   34.9010   -6.3932   82.7733 H   0  0  0  0  0  0  0  0  0  0  0  0
   35.8251   -8.6680   83.0996 H   0  0  0  0  0  0  0  0  0  0  0  0
   37.0712   -7.3831   83.2513 H   0  0  0  0  0  0  0  0  0  0  0  0
   36.1775  -10.4731   81.2516 H   0  0  0  0  0  0  0  0  0  0  0  0
   38.0840  -10.9719   79.5735 H   0  0  0  0  0  0  0  0  0  0  0  0
   38.8645   -6.1928   81.9077 H   0  0  0  0  0  0  0  0  0  0  0  0
   40.5591   -9.8058   78.8949 H   0  0  0  0  0  0  0  0  0  0  0  0
   41.0566   -5.9684   80.7227 H   0  0  0  0  0  0  0  0  0  0  0  0
   41.8113   -7.7212   79.1521 H   0  0  0  0  0  0  0  0  0  0  0  0
   35.8120   -6.7560   79.3828 H   0  0  0  0  0  0  0  0  0  0  0  0
   37.9811   -4.8814   79.4999 H   0  0  0  0  0  0  0  0  0  0  0  0
   37.7642   -4.7835   77.0271 H   0  0  0  0  0  0  0  0  0  0  0  0
   36.3312   -5.8568   77.1730 H   0  0  0  0  0  0  0  0  0  0  0  0
   38.6089   -6.8769   78.5996 H   0  0  0  0  0  0  0  0  0  0  0  0
   38.9749   -6.5597   76.8698 H   0  0  0  0  0  0  0  0  0  0  0  0
   34.6275   -4.3077   79.4755 H   0  0  0  0  0  0  0  0  0  0  0  0
   34.9575   -1.6858   78.1484 H   0  0  0  0  0  0  0  0  0  0  0  0
   35.3398   -1.8771   81.1217 O   0  0  0  0  0  0  0  0  0  0  0  0
   32.4426   -1.6134   78.3191 H   0  0  0  0  0  0  0  0  0  0  0  0
   32.4886   -3.2481   79.0623 H   0  0  0  0  0  0  0  0  0  0  0  0
   33.5718   -4.2100   77.0665 H   0  0  0  0  0  0  0  0  0  0  0  0
   33.8280   -2.5811   76.3540 H   0  0  0  0  0  0  0  0  0  0  0  0
  1  2  2  0  0  0  0
  1  3  1  0  0  0  0
  1  4  1  0  0  0  0
  3107  1  0  0  0  0
  3108  1  0  0  0  0
  3109  1  0  0  0  0
  4  5  1  0  0  0  0
  4110  1  0  0  0  0
  5  6  1  0  0  0  0
  5  8  1  0  0  0  0
  5111  1  6  0  0  0
  6  7  2  0  0  0  0
  6 12  1  0  0  0  0
  8  9  1  0  0  0  0
  8 10  1  0  0  0  0
  8112  1  1  0  0  0
  9 11  1  0  0  0  0
  9113  1  0  0  0  0
  9114  1  0  0  0  0
 10115  1  0  0  0  0
 10116  1  0  0  0  0
 10117  1  0  0  0  0
 11118  1  0  0  0  0
 11119  1  0  0  0  0
 11120  1  0  0  0  0
 12 13  1  0  0  0  0
 12121  1  0  0  0  0
 13 14  1  0  0  0  0
 13 16  1  0  0  0  0
 13122  1  1  0  0  0
 14 15  2  0  0  0  0
 14 18  1  0  0  0  0
 16 17  1  0  0  0  0
 16123  1  0  0  0  0
 16124  1  0  0  0  0
 17125  1  0  0  0  0
 18 19  1  0  0  0  0
 18126  1  0  0  0  0
 19 20  1  0  0  0  0
 19 22  1  0  0  0  0
 19127  1  6  0  0  0
 20 21  2  0  0  0  0
 20 25  1  0  0  0  0
 22 23  1  0  0  0  0
 22 24  1  0  0  0  0
 22128  1  6  0  0  0
 23 75  1  0  0  0  0
 24129  1  0  0  0  0
 24130  1  0  0  0  0
 24131  1  0  0  0  0
 25 26  1  0  0  0  0
 25132  1  0  0  0  0
 26 27  1  0  0  0  0
 26 29  1  0  0  0  0
 26133  1  6  0  0  0
 27 28  2  0  0  0  0
 27 36  1  0  0  0  0
 29 30  1  0  0  0  0
 29134  1  0  0  0  0
 29135  1  0  0  0  0
 30 31  1  0  0  0  0
 30136  1  0  0  0  0
 30137  1  0  0  0  0
 31 32  1  0  0  0  0
 31138  1  0  0  0  0
 31139  1  0  0  0  0
 32 33  1  0  0  0  0
 32140  1  0  0  0  0
 33 34  1  0  0  0  0
 33 35  1  0  0  0  0
 34141  1  0  0  0  0
 34142  1  0  0  0  0
 35143  1  0  0  0  0
 35144  1  0  0  0  0
 36 37  1  0  0  0  0
 36145  1  0  0  0  0
 37 38  1  0  0  0  0
 37 40  1  0  0  0  0
 37146  1  6  0  0  0
 38 39  2  0  0  0  0
 38 45  1  0  0  0  0
 40 41  1  0  0  0  0
 40147  1  0  0  0  0
 40148  1  0  0  0  0
 41 42  1  0  0  0  0
 41149  1  0  0  0  0
 41150  1  0  0  0  0
 42 43  1  0  0  0  0
 42151  1  0  0  0  0
 42152  1  0  0  0  0
 43 44  1  0  0  0  0
 43153  1  0  0  0  0
 43154  1  0  0  0  0
 44105  1  0  0  0  0
 44155  1  0  0  0  0
 45 46  1  0  0  0  0
 45156  1  0  0  0  0
 46 47  1  0  0  0  0
 46 49  1  0  0  0  0
 46157  1  1  0  0  0
 47 48  2  0  0  0  0
 47 57  1  0  0  0  0
 49 50  1  0  0  0  0
 49158  1  0  0  0  0
 49159  1  0  0  0  0
 50 51  2  0  0  0  0
 50 52  1  0  0  0  0
 51 53  1  0  0  0  0
 51160  1  0  0  0  0
 52 54  2  0  0  0  0
 52161  1  0  0  0  0
 53 55  2  0  0  0  0
 53162  1  0  0  0  0
 54 55  1  0  0  0  0
 54163  1  0  0  0  0
 55 56  1  0  0  0  0
 56164  1  0  0  0  0
 57 58  1  0  0  0  0
 57 63  1  0  0  0  0
 58 59  1  0  0  0  0
 58 61  1  0  0  0  0
 58165  1  6  0  0  0
 59 60  2  0  0  0  0
 59 64  1  0  0  0  0
 61 62  1  0  0  0  0
 61166  1  0  0  0  0
 61167  1  0  0  0  0
 62 63  1  0  0  0  0
 62168  1  0  0  0  0
 62169  1  0  0  0  0
 63170  1  0  0  0  0
 63171  1  0  0  0  0
 64 65  1  0  0  0  0
 64172  1  0  0  0  0
 65 66  1  0  0  0  0
 65 68  1  0  0  0  0
 65173  1  6  0  0  0
 66 67  2  0  0  0  0
 66 70  1  0  0  0  0
 68 69  1  0  0  0  0
 68174  1  0  0  0  0
 68175  1  0  0  0  0
 69 97  1  0  0  0  0
 70 71  1  0  0  0  0
 70176  1  0  0  0  0
 71 72  1  0  0  0  0
 71 74  1  0  0  0  0
 71177  1  6  0  0  0
 72 73  2  0  0  0  0
 72 77  1  0  0  0  0
 74 75  1  0  0  0  0
 74178  1  0  0  0  0
 74179  1  0  0  0  0
 75 76  2  0  0  0  0
 77 78  1  0  0  0  0
 77180  1  0  0  0  0
 78 79  1  0  0  0  0
 78 81  1  0  0  0  0
 78181  1  1  0  0  0
 79 80  2  0  0  0  0
 79 91  1  0  0  0  0
 81 82  1  0  0  0  0
 81182  1  0  0  0  0
 81183  1  0  0  0  0
 82 83  2  0  0  0  0
 82 84  1  0  0  0  0
 83 85  1  0  0  0  0
 83184  1  0  0  0  0
 84 86  2  0  0  0  0
 84 87  1  0  0  0  0
 85 86  1  0  0  0  0
 85185  1  0  0  0  0
 86 88  1  0  0  0  0
 87 89  2  0  0  0  0
 87186  1  0  0  0  0
 88 90  2  0  0  0  0
 88187  1  0  0  0  0
 89 90  1  0  0  0  0
 89188  1  0  0  0  0
 90189  1  0  0  0  0
 91 92  1  0  0  0  0
 91190  1  0  0  0  0
 92 93  1  0  0  0  0
 92 95  1  0  0  0  0
 92191  1  1  0  0  0
 93 94  2  0  0  0  0
 93 99  1  0  0  0  0
 95 96  1  0  0  0  0
 95192  1  0  0  0  0
 95193  1  0  0  0  0
 96 97  1  0  0  0  0
 96194  1  0  0  0  0
 96195  1  0  0  0  0
 97 98  2  0  0  0  0
 99100  1  0  0  0  0
 99196  1  0  0  0  0
100101  1  0  0  0  0
100103  1  0  0  0  0
100197  1  6  0  0  0
101102  1  0  0  0  0
101198  2  0  0  0  0
103104  1  0  0  0  0
103199  1  0  0  0  0
103200  1  0  0  0  0
104105  1  0  0  0  0
104201  1  0  0  0  0
104202  1  0  0  0  0
105106  2  0  0  0  0
M  CHG  1 102  -1
M  END
