4kva_ligand
 OpenBabel08222323353D

 45 47  0  0  1  0  0  0  0  0999 V2000
  -39.0700  -19.7150  106.4760 P   0  0  0  0  0  0  0  0  0  0  0  0
  -40.4070  -20.4090  106.3980 O   0  0  0  0  0  1  0  0  0  0  0  0
  -39.0390  -18.5820  105.4790 O   0  0  0  0  0  1  0  0  0  0  0  0
  -37.9730  -20.6990  106.1430 O   0  0  0  0  0  0  0  0  0  0  0  0
  -38.8210  -19.0910  107.9470 O   0  0  0  0  0  0  0  0  0  0  0  0
  -39.8830  -19.1450  109.1640 P   0  0  2  0  0  0  0  0  0  0  0  0
  -40.8100  -20.3320  109.0560 O   0  0  0  0  0  1  0  0  0  0  0  0
  -40.6660  -17.8570  109.2030 O   0  0  0  0  0  0  0  0  0  0  0  0
  -38.9810  -19.2940  110.4930 O   0  0  0  0  0  0  0  0  0  0  0  0
  -38.8900  -20.6900  111.2930 P   0  0  2  0  0  0  0  0  0  0  0  0
  -38.6800  -21.8230  110.3150 O   0  0  0  0  0  1  0  0  0  0  0  0
  -40.1190  -20.9220  112.1400 O   0  0  0  0  0  0  0  0  0  0  0  0
  -37.5710  -20.5640  112.2020 O   0  0  0  0  0  0  0  0  0  0  0  0
  -36.6140  -19.5450  112.0300 C   0  0  0  0  0  0  0  0  0  0  0  0
  -35.5120  -19.7840  113.0530 C   0  0  1  0  0  0  0  0  0  0  0  0
  -35.7510  -18.9200  114.1450 O   0  0  0  0  0  0  0  0  0  0  0  0
  -35.5800  -21.2080  113.5790 C   0  0  1  0  0  0  0  0  0  0  0  0
  -34.2990  -21.7910  113.5460 O   0  0  0  0  0  0  0  0  0  0  0  0
  -36.0510  -21.0920  115.0130 C   0  0  1  0  0  0  0  0  0  0  0  0
  -35.2920  -21.9200  115.8610 O   0  0  0  0  0  0  0  0  0  0  0  0
  -35.8500  -19.6290  115.3630 C   0  0  2  0  0  0  0  0  0  0  0  0
  -37.0050  -19.1160  116.1160 N   0  0  0  0  0  0  0  0  0  0  0  0
  -38.3160  -19.4840  115.9610 C   0  0  0  0  0  0  0  0  0  0  0  0
  -39.0640  -18.7790  116.8400 N   0  0  0  0  0  0  0  0  0  0  0  0
  -38.2480  -17.9700  117.5530 C   0  0  0  0  0  0  0  0  0  0  0  0
  -38.4870  -17.0530  118.5690 C   0  0  0  0  0  0  0  0  0  0  0  0
  -39.6320  -16.8640  118.9740 O   0  0  0  0  0  0  0  0  0  0  0  0
  -37.4330  -16.3550  119.1210 N   0  0  0  0  0  0  0  0  0  0  0  0
  -36.1490  -16.5700  118.6620 C   0  0  2  0  0  3  0  0  0  0  0  0
  -35.1300  -15.8980  119.1890 N   0  0  0  0  0  0  0  0  0  0  0  0
  -35.9190  -17.4840  117.6530 N   0  0  0  0  0  0  0  0  0  0  0  0
  -36.9510  -18.1710  117.1070 C   0  0  0  0  0  0  0  0  0  0  0  0
  -37.0768  -18.5613  112.1977 H   0  0  0  0  0  0  0  0  0  0  0  0
  -36.1986  -19.5861  111.0123 H   0  0  0  0  0  0  0  0  0  0  0  0
  -34.5264  -19.5882  112.6055 H   0  0  0  0  0  0  0  0  0  0  0  0
  -36.2825  -21.8105  112.9845 H   0  0  0  0  0  0  0  0  0  0  0  0
  -34.3485  -22.6805  113.8759 H   0  0  0  0  0  0  0  0  0  0  0  0
  -37.1133  -21.3658  115.0936 H   0  0  0  0  0  0  0  0  0  0  0  0
  -34.3784  -21.6631  115.8179 H   0  0  0  0  0  0  0  0  0  0  0  0
  -34.9326  -19.5043  115.9569 H   0  0  0  0  0  0  0  0  0  0  0  0
  -38.6916  -20.2191  115.2508 H   0  0  0  0  0  0  0  0  0  0  0  0
  -37.5989  -15.6940  119.8528 H   0  0  0  0  0  0  0  0  0  0  0  0
  -34.1729  -16.0603  118.8447 H   0  0  0  0  0  0  0  0  0  0  0  0
  -35.2976  -15.2151  119.9416 H   0  0  0  0  0  0  0  0  0  0  0  0
  -34.9595  -17.6440  117.3143 H   0  0  0  0  0  0  0  0  0  0  0  0
  1  2  1  0  0  0  0
  1  3  1  0  0  0  0
  1  4  2  0  0  0  0
  1  5  1  0  0  0  0
  5  6  1  0  0  0  0
  6  7  1  6  0  0  0
  6  8  2  0  0  0  0
  6  9  1  0  0  0  0
  9 10  1  0  0  0  0
 10 11  1  6  0  0  0
 10 12  2  0  0  0  0
 10 13  1  0  0  0  0
 13 14  1  0  0  0  0
 14 15  1  0  0  0  0
 14 33  1  0  0  0  0
 14 34  1  0  0  0  0
 15 16  1  0  0  0  0
 15 17  1  0  0  0  0
 15 35  1  6  0  0  0
 16 21  1  0  0  0  0
 17 18  1  0  0  0  0
 17 19  1  0  0  0  0
 17 36  1  6  0  0  0
 18 37  1  0  0  0  0
 19 20  1  0  0  0  0
 19 21  1  0  0  0  0
 19 38  1  1  0  0  0
 20 39  1  0  0  0  0
 21 22  1  0  0  0  0
 21 40  1  1  0  0  0
 22 23  1  0  0  0  0
 22 32  1  0  0  0  0
 23 24  2  0  0  0  0
 23 41  1  0  0  0  0
 24 25  1  0  0  0  0
 25 26  1  0  0  0  0
 25 32  2  0  0  0  0
 26 27  2  0  0  0  0
 26 28  1  0  0  0  0
 28 29  1  0  0  0  0
 28 42  1  0  0  0  0
 29 30  1  6  0  0  0
 29 31  1  0  0  0  0
 30 43  1  0  0  0  0
 30 44  1  0  0  0  0
 31 32  1  0  0  0  0
 31 45  1  0  0  0  0
M  END
