4kw6_ligand
 OpenBabel08222323353D

 23 24  0  0  0  0  0  0  0  0999 V2000
   26.0660  -58.3250  104.1650 O   0  0  0  0  0  0  0  0  0  0  0  0
   25.0610  -57.8090  104.6930 N   0  0  0  0  0  0  0  0  0  0  0  0
   23.8470  -58.0240  104.1610 C   0  0  0  0  0  0  0  0  0  0  0  0
   23.7890  -58.8940  102.9300 C   0  0  0  0  0  0  0  0  0  0  0  0
   22.7210  -57.4390  104.7660 C   0  0  0  0  0  0  0  0  0  0  0  0
   21.3200  -57.5930  104.2670 C   0  0  0  0  0  0  0  0  0  0  0  0
   25.1880  -57.0420  105.7910 C   0  0  0  0  0  0  0  0  0  0  0  0
   26.4410  -56.8080  106.3510 C   0  0  0  0  0  0  0  0  0  0  0  0
   26.5710  -56.0140  107.4890 C   0  0  0  0  0  0  0  0  0  0  0  0
   25.4450  -55.4410  108.0770 C   0  0  0  0  0  0  0  0  0  0  0  0
   24.1880  -55.6660  107.5220 C   0  0  0  0  0  0  0  0  0  0  0  0
   24.0610  -56.4650  106.3840 C   0  0  0  0  0  0  0  0  0  0  0  0
   22.8570  -56.6770  105.8550 N   0  0  0  0  0  0  0  0  0  0  0  0
   22.7448  -58.9897  102.5975 H   0  0  0  0  0  0  0  0  0  0  0  0
   24.1915  -59.8902  103.1657 H   0  0  0  0  0  0  0  0  0  0  0  0
   24.3883  -58.4365  102.1291 H   0  0  0  0  0  0  0  0  0  0  0  0
   20.6342  -57.0351  104.9216 H   0  0  0  0  0  0  0  0  0  0  0  0
   21.0446  -58.6580  104.2700 H   0  0  0  0  0  0  0  0  0  0  0  0
   21.2503  -57.1991  103.2423 H   0  0  0  0  0  0  0  0  0  0  0  0
   27.3227  -57.2470  105.8982 H   0  0  0  0  0  0  0  0  0  0  0  0
   27.5514  -55.8416  107.9182 H   0  0  0  0  0  0  0  0  0  0  0  0
   25.5472  -54.8233  108.9619 H   0  0  0  0  0  0  0  0  0  0  0  0
   23.3085  -55.2211  107.9732 H   0  0  0  0  0  0  0  0  0  0  0  0
  1  2  2  0  0  0  0
  2  3  2  0  0  0  0
  2  7  1  0  0  0  0
  3  4  1  0  0  0  0
  3  5  1  0  0  0  0
  4 14  1  0  0  0  0
  4 15  1  0  0  0  0
  4 16  1  0  0  0  0
  5  6  1  0  0  0  0
  5 13  2  0  0  0  0
  6 17  1  0  0  0  0
  6 18  1  0  0  0  0
  6 19  1  0  0  0  0
  7  8  2  0  0  0  0
  7 12  1  0  0  0  0
  8  9  1  0  0  0  0
  8 20  1  0  0  0  0
  9 10  2  0  0  0  0
  9 21  1  0  0  0  0
 10 11  1  0  0  0  0
 10 22  1  0  0  0  0
 11 12  2  0  0  0  0
 11 23  1  0  0  0  0
 12 13  1  0  0  0  0
M  END
