4kz8_ligand
 OpenBabel08222323353D

 25 25  0  0  0  0  0  0  0  0999 V2000
   23.8700    8.7590   16.0970 C   0  0  0  0  0  0  0  0  0  0  0  0
   23.4040    7.3540   16.2820 C   0  0  0  0  0  0  0  0  0  0  0  0
   22.5960    6.7670   15.2370 N   0  0  0  0  0  0  0  0  0  0  0  0
   21.2530    6.8820   15.3500 C   0  0  0  0  0  0  0  0  0  0  0  0
   20.6770    7.5320   16.4230 O   0  0  0  0  0  0  0  0  0  0  0  0
   20.4420    6.3360   14.3770 C   0  0  0  0  0  0  0  0  0  0  0  0
   21.0130    5.6870   13.3050 C   0  0  0  0  0  0  0  0  0  0  0  0
   20.2750    5.2090   12.4500 O   0  0  0  0  0  0  0  0  0  0  0  0
   22.3550    5.5810   13.2030 N   0  0  0  0  0  0  0  0  0  0  0  0
   22.8720    4.8830   12.0450 C   0  0  0  0  0  0  0  0  0  0  0  0
   23.1160    5.6950   10.8130 C   0  0  0  0  0  0  0  0  0  0  0  0
   23.1630    6.1230   14.1700 C   0  0  0  0  0  0  0  0  0  0  0  0
   24.8340    6.0130   14.0840 S   0  0  0  0  0  0  0  0  0  0  0  0
   24.4690    9.0642   16.9676 H   0  0  0  0  0  0  0  0  0  0  0  0
   22.9994    9.4243   15.9995 H   0  0  0  0  0  0  0  0  0  0  0  0
   24.4853    8.8245   15.1875 H   0  0  0  0  0  0  0  0  0  0  0  0
   22.8128    7.3242   17.2091 H   0  0  0  0  0  0  0  0  0  0  0  0
   24.2986    6.7244   16.3971 H   0  0  0  0  0  0  0  0  0  0  0  0
   19.7315    7.5134   16.3327 H   0  0  0  0  0  0  0  0  0  0  0  0
   19.3589    6.4175   14.4559 H   0  0  0  0  0  0  0  0  0  0  0  0
   22.1512    4.0940   11.7844 H   0  0  0  0  0  0  0  0  0  0  0  0
   23.8290    4.4243   12.3344 H   0  0  0  0  0  0  0  0  0  0  0  0
   23.5053    5.0443   10.0161 H   0  0  0  0  0  0  0  0  0  0  0  0
   23.8500    6.4841   11.0333 H   0  0  0  0  0  0  0  0  0  0  0  0
   22.1722    6.1538   10.4833 H   0  0  0  0  0  0  0  0  0  0  0  0
  1  2  1  0  0  0  0
  1 14  1  0  0  0  0
  1 15  1  0  0  0  0
  1 16  1  0  0  0  0
  2  3  1  0  0  0  0
  2 17  1  0  0  0  0
  2 18  1  0  0  0  0
  3  4  1  0  0  0  0
  3 12  1  0  0  0  0
  4  5  1  0  0  0  0
  4  6  2  0  0  0  0
  5 19  1  0  0  0  0
  6  7  1  0  0  0  0
  6 20  1  0  0  0  0
  7  8  2  0  0  0  0
  7  9  1  0  0  0  0
  9 10  1  0  0  0  0
  9 12  1  0  0  0  0
 10 11  1  0  0  0  0
 10 21  1  0  0  0  0
 10 22  1  0  0  0  0
 11 23  1  0  0  0  0
 11 24  1  0  0  0  0
 11 25  1  0  0  0  0
 12 13  2  0  0  0  0
M  END
