4l0b_ligand
 OpenBabel08222323353D

 35 37  0  0  0  0  0  0  0  0999 V2000
    5.5600   11.4350   -5.5160 C   0  0  0  0  0  0  0  0  0  0  0  0
    6.1650   10.4470   -6.4430 N   0  0  0  0  0  0  0  0  0  0  0  0
    6.3650    9.0730   -5.9990 C   0  0  0  0  0  0  0  0  0  0  0  0
    6.3180   10.7430   -7.7860 C   0  0  0  0  0  0  0  0  0  0  0  0
    5.7340   11.8760   -8.3420 C   0  0  0  0  0  0  0  0  0  0  0  0
    5.8800   12.1960   -9.7030 C   0  0  0  0  0  0  0  0  0  0  0  0
    7.0110    9.8840   -8.6340 C   0  0  0  0  0  0  0  0  0  0  0  0
    7.1260   10.1830  -10.0090 C   0  0  0  0  0  0  0  0  0  0  0  0
    6.5780   11.3360  -10.5660 C   0  0  0  0  0  0  0  0  0  0  0  0
    6.6690   11.6340  -11.9720 C   0  0  0  0  0  0  0  0  0  0  0  0
    5.8980   12.6600  -12.3640 O   0  0  0  0  0  0  0  0  0  0  0  0
    5.8460   13.0170  -13.6880 C   0  0  0  0  0  0  0  0  0  0  0  0
    5.0130   14.0600  -14.0260 C   0  0  0  0  0  0  0  0  0  0  0  0
    4.8600   14.4310  -15.3850 C   0  0  0  0  0  0  0  0  0  0  0  0
    5.5630   13.6960  -16.3740 C   0  0  0  0  0  0  0  0  0  0  0  0
    6.4240   12.6250  -15.9920 C   0  0  0  0  0  0  0  0  0  0  0  0
    6.5570   12.2690  -14.6450 C   0  0  0  0  0  0  0  0  0  0  0  0
    7.4230   11.2210  -14.2540 C   0  0  0  0  0  0  0  0  0  0  0  0
    8.2550   10.6770  -15.0420 O   0  0  0  0  0  0  0  0  0  0  0  0
    7.4300   10.9290  -12.8960 C   0  0  0  0  0  0  0  0  0  0  0  0
    5.5274   11.0130   -4.5007 H   0  0  0  0  0  0  0  0  0  0  0  0
    4.5382   11.6713   -5.8478 H   0  0  0  0  0  0  0  0  0  0  0  0
    6.1659   12.3531   -5.5121 H   0  0  0  0  0  0  0  0  0  0  0  0
    6.8208    8.4879   -6.8113 H   0  0  0  0  0  0  0  0  0  0  0  0
    5.3952    8.6304   -5.7279 H   0  0  0  0  0  0  0  0  0  0  0  0
    7.0300    9.0639   -5.1229 H   0  0  0  0  0  0  0  0  0  0  0  0
    5.1490   12.5317   -7.7072 H   0  0  0  0  0  0  0  0  0  0  0  0
    5.4506   13.1134  -10.0891 H   0  0  0  0  0  0  0  0  0  0  0  0
    7.4639    8.9825   -8.2374 H   0  0  0  0  0  0  0  0  0  0  0  0
    7.6585    9.4922  -10.6527 H   0  0  0  0  0  0  0  0  0  0  0  0
    4.4748   14.5968  -13.2532 H   0  0  0  0  0  0  0  0  0  0  0  0
    4.2188   15.2596  -15.6633 H   0  0  0  0  0  0  0  0  0  0  0  0
    5.4456   13.9487  -17.4216 H   0  0  0  0  0  0  0  0  0  0  0  0
    6.9788   12.0834  -16.7496 H   0  0  0  0  0  0  0  0  0  0  0  0
    8.0582   10.1134  -12.5409 H   0  0  0  0  0  0  0  0  0  0  0  0
  1  2  1  0  0  0  0
  1 21  1  0  0  0  0
  1 22  1  0  0  0  0
  1 23  1  0  0  0  0
  2  3  1  0  0  0  0
  2  4  1  0  0  0  0
  3 24  1  0  0  0  0
  3 25  1  0  0  0  0
  3 26  1  0  0  0  0
  4  5  2  0  0  0  0
  4  7  1  0  0  0  0
  5  6  1  0  0  0  0
  5 27  1  0  0  0  0
  6  9  2  0  0  0  0
  6 28  1  0  0  0  0
  7  8  2  0  0  0  0
  7 29  1  0  0  0  0
  8  9  1  0  0  0  0
  8 30  1  0  0  0  0
  9 10  1  0  0  0  0
 10 11  1  0  0  0  0
 10 20  2  0  0  0  0
 11 12  1  0  0  0  0
 12 13  2  0  0  0  0
 12 17  1  0  0  0  0
 13 14  1  0  0  0  0
 13 31  1  0  0  0  0
 14 15  2  0  0  0  0
 14 32  1  0  0  0  0
 15 16  1  0  0  0  0
 15 33  1  0  0  0  0
 16 17  2  0  0  0  0
 16 34  1  0  0  0  0
 17 18  1  0  0  0  0
 18 19  2  0  0  0  0
 18 20  1  0  0  0  0
 20 35  1  0  0  0  0
M  END
