4l0i_ligand
 OpenBabel08222323353D

 36 38  0  0  0  0  0  0  0  0999 V2000
   -8.3700   37.6860   -3.5530 C   0  0  0  0  0  0  0  0  0  0  0  0
   -8.1030   38.3310   -4.9130 C   0  0  0  0  0  0  0  0  0  0  0  0
   -7.2450   37.4170   -5.6210 O   0  0  0  0  0  0  0  0  0  0  0  0
   -6.1600   37.8590   -6.3240 C   0  0  0  0  0  0  0  0  0  0  0  0
   -5.0990   38.0840   -5.7500 O   0  0  0  0  0  0  0  0  0  0  0  0
   -6.3010   37.7850   -7.7430 C   0  0  0  0  0  0  0  0  0  0  0  0
   -5.6410   36.7760   -8.4650 C   0  0  0  0  0  0  0  0  0  0  0  0
   -5.7750   36.6500   -9.8460 C   0  0  0  0  0  0  0  0  0  0  0  0
   -7.1330   38.6430   -8.4800 C   0  0  0  0  0  0  0  0  0  0  0  0
   -7.2830   38.5150   -9.8690 C   0  0  0  0  0  0  0  0  0  0  0  0
   -6.6100   37.5130  -10.5870 C   0  0  0  0  0  0  0  0  0  0  0  0
   -6.7020   37.3510  -11.9930 C   0  0  0  0  0  0  0  0  0  0  0  0
   -5.9320   36.3360  -12.4850 O   0  0  0  0  0  0  0  0  0  0  0  0
   -5.7890   36.0920  -13.8310 C   0  0  0  0  0  0  0  0  0  0  0  0
   -4.8820   35.1050  -14.2530 C   0  0  0  0  0  0  0  0  0  0  0  0
   -4.7220   34.8700  -15.6150 C   0  0  0  0  0  0  0  0  0  0  0  0
   -5.4690   35.6150  -16.5420 C   0  0  0  0  0  0  0  0  0  0  0  0
   -6.3770   36.5870  -16.1040 C   0  0  0  0  0  0  0  0  0  0  0  0
   -6.5670   36.8140  -14.7380 C   0  0  0  0  0  0  0  0  0  0  0  0
   -7.4480   37.8030  -14.2610 C   0  0  0  0  0  0  0  0  0  0  0  0
   -8.1480   38.4630  -15.0400 O   0  0  0  0  0  0  0  0  0  0  0  0
   -7.4700   38.1020  -12.8920 C   0  0  0  0  0  0  0  0  0  0  0  0
   -9.0251   38.3404   -2.9591 H   0  0  0  0  0  0  0  0  0  0  0  0
   -7.4174   37.5417   -3.0222 H   0  0  0  0  0  0  0  0  0  0  0  0
   -8.8597   36.7119   -3.6989 H   0  0  0  0  0  0  0  0  0  0  0  0
   -7.6038   39.3027   -4.7844 H   0  0  0  0  0  0  0  0  0  0  0  0
   -9.0461   38.4729   -5.4610 H   0  0  0  0  0  0  0  0  0  0  0  0
   -5.0090   36.0751   -7.9317 H   0  0  0  0  0  0  0  0  0  0  0  0
   -5.2255   35.8716  -10.3628 H   0  0  0  0  0  0  0  0  0  0  0  0
   -7.6744   39.4259   -7.9614 H   0  0  0  0  0  0  0  0  0  0  0  0
   -7.9315   39.2034  -10.3988 H   0  0  0  0  0  0  0  0  0  0  0  0
   -4.3145   34.5342  -13.5269 H   0  0  0  0  0  0  0  0  0  0  0  0
   -4.0240   34.1154  -15.9590 H   0  0  0  0  0  0  0  0  0  0  0  0
   -5.3419   35.4364  -17.6036 H   0  0  0  0  0  0  0  0  0  0  0  0
   -6.9362   37.1672  -16.8291 H   0  0  0  0  0  0  0  0  0  0  0  0
   -8.0866   38.9215  -12.5257 H   0  0  0  0  0  0  0  0  0  0  0  0
  1  2  1  0  0  0  0
  1 23  1  0  0  0  0
  1 24  1  0  0  0  0
  1 25  1  0  0  0  0
  2  3  1  0  0  0  0
  2 26  1  0  0  0  0
  2 27  1  0  0  0  0
  3  4  1  0  0  0  0
  4  5  2  0  0  0  0
  4  6  1  0  0  0  0
  6  7  2  0  0  0  0
  6  9  1  0  0  0  0
  7  8  1  0  0  0  0
  7 28  1  0  0  0  0
  8 11  2  0  0  0  0
  8 29  1  0  0  0  0
  9 10  2  0  0  0  0
  9 30  1  0  0  0  0
 10 11  1  0  0  0  0
 10 31  1  0  0  0  0
 11 12  1  0  0  0  0
 12 13  1  0  0  0  0
 12 22  2  0  0  0  0
 13 14  1  0  0  0  0
 14 15  2  0  0  0  0
 14 19  1  0  0  0  0
 15 16  1  0  0  0  0
 15 32  1  0  0  0  0
 16 17  2  0  0  0  0
 16 33  1  0  0  0  0
 17 18  1  0  0  0  0
 17 34  1  0  0  0  0
 18 19  2  0  0  0  0
 18 35  1  0  0  0  0
 19 20  1  0  0  0  0
 20 21  2  0  0  0  0
 20 22  1  0  0  0  0
 22 36  1  0  0  0  0
M  END
