4l0v_ligand
 OpenBabel08222323353D

 27 29  0  0  0  0  0  0  0  0999 V2000
   -7.3710  -38.0050   12.9100 C   0  0  0  0  0  0  0  0  0  0  0  0
   -7.3570  -37.7030   14.2630 C   0  0  0  0  0  0  0  0  0  0  0  0
   -8.1600  -38.2750   14.9950 O   0  0  0  0  0  0  0  0  0  0  0  0
   -6.5050  -36.6920   14.7170 C   0  0  0  0  0  0  0  0  0  0  0  0
   -6.3640  -36.4240   16.0480 C   0  0  0  0  0  0  0  0  0  0  0  0
   -5.5170  -35.3710   16.4470 C   0  0  0  0  0  0  0  0  0  0  0  0
   -4.8080  -34.6040   15.5070 C   0  0  0  0  0  0  0  0  0  0  0  0
   -4.9580  -34.8980   14.1400 C   0  0  0  0  0  0  0  0  0  0  0  0
   -5.8070  -35.9300   13.7780 C   0  0  0  0  0  0  0  0  0  0  0  0
   -5.8910  -36.2240   12.4520 O   0  0  0  0  0  0  0  0  0  0  0  0
   -6.5900  -37.3270   12.0220 C   0  0  0  0  0  0  0  0  0  0  0  0
   -6.5800  -37.5590   10.6240 C   0  0  0  0  0  0  0  0  0  0  0  0
   -5.8560  -36.6710    9.8080 C   0  0  0  0  0  0  0  0  0  0  0  0
   -5.8380  -36.8390    8.4230 C   0  0  0  0  0  0  0  0  0  0  0  0
   -6.5060  -37.9140    7.8450 C   0  0  0  0  0  0  0  0  0  0  0  0
   -6.4610  -38.1020    6.1170 Cl  0  0  0  0  0  0  0  0  0  0  0  0
   -7.2290  -38.8080    8.6320 C   0  0  0  0  0  0  0  0  0  0  0  0
   -7.2720  -38.6270   10.0190 C   0  0  0  0  0  0  0  0  0  0  0  0
   -8.0201  -38.8013   12.5487 H   0  0  0  0  0  0  0  0  0  0  0  0
   -6.8957  -37.0125   16.7870 H   0  0  0  0  0  0  0  0  0  0  0  0
   -5.4100  -35.1477   17.5023 H   0  0  0  0  0  0  0  0  0  0  0  0
   -4.1568  -33.7998   15.8299 H   0  0  0  0  0  0  0  0  0  0  0  0
   -4.4219  -34.3304   13.3880 H   0  0  0  0  0  0  0  0  0  0  0  0
   -5.3085  -35.8508   10.2581 H   0  0  0  0  0  0  0  0  0  0  0  0
   -5.3040  -36.1326    7.7978 H   0  0  0  0  0  0  0  0  0  0  0  0
   -7.7544  -39.6378    8.1732 H   0  0  0  0  0  0  0  0  0  0  0  0
   -7.8425  -39.3143   10.6332 H   0  0  0  0  0  0  0  0  0  0  0  0
  1  2  1  0  0  0  0
  1 11  2  0  0  0  0
  1 19  1  0  0  0  0
  2  3  2  0  0  0  0
  2  4  1  0  0  0  0
  4  5  2  0  0  0  0
  4  9  1  0  0  0  0
  5  6  1  0  0  0  0
  5 20  1  0  0  0  0
  6  7  2  0  0  0  0
  6 21  1  0  0  0  0
  7  8  1  0  0  0  0
  7 22  1  0  0  0  0
  8  9  2  0  0  0  0
  8 23  1  0  0  0  0
  9 10  1  0  0  0  0
 10 11  1  0  0  0  0
 11 12  1  0  0  0  0
 12 13  2  0  0  0  0
 12 18  1  0  0  0  0
 13 14  1  0  0  0  0
 13 24  1  0  0  0  0
 14 15  2  0  0  0  0
 14 25  1  0  0  0  0
 15 16  1  0  0  0  0
 15 17  1  0  0  0  0
 17 18  2  0  0  0  0
 17 26  1  0  0  0  0
 18 27  1  0  0  0  0
M  END
