4l52_ligand
 OpenBabel08222323353D

 54 59  0  0  0  0  0  0  0  0999 V2000
  -23.4860  -49.9850  -21.7180 O   0  0  0  0  0  0  0  0  0  0  0  0
  -23.1710  -48.9010  -21.2410 C   0  0  0  0  0  0  0  0  0  0  0  0
  -23.2970  -47.6570  -22.0790 C   0  0  0  0  0  0  0  0  0  0  0  0
  -22.7170  -48.7900  -19.9750 N   0  0  0  0  0  0  0  0  0  0  0  0
  -22.2970  -47.5400  -19.3310 C   0  0  0  0  0  0  0  0  0  0  0  0
  -20.7770  -47.6780  -19.2010 C   0  0  0  0  0  0  0  0  0  0  0  0
  -20.4430  -48.8850  -18.3240 C   0  0  0  0  0  0  0  0  0  0  0  0
  -21.0530  -50.1550  -18.9320 C   0  0  0  0  0  0  0  0  0  0  0  0
  -22.5600  -49.9570  -19.0980 C   0  0  0  0  0  0  0  0  0  0  0  0
  -18.9790  -49.0340  -18.0900 N   0  0  0  0  0  0  0  0  0  0  0  0
  -18.1710  -48.4020  -17.2550 C   0  0  0  0  0  0  0  0  0  0  0  0
  -16.9060  -48.9540  -17.4090 C   0  0  0  0  0  0  0  0  0  0  0  0
  -17.0190  -49.9520  -18.3810 C   0  0  0  0  0  0  0  0  0  0  0  0
  -18.3020  -50.0230  -18.8100 N   0  0  0  0  0  0  0  0  0  0  0  0
  -15.7730  -48.5470  -16.6950 C   0  0  0  0  0  0  0  0  0  0  0  0
  -15.8840  -47.4800  -15.7990 C   0  0  0  0  0  0  0  0  0  0  0  0
  -14.8370  -47.0280  -15.0790 N   0  0  0  0  0  0  0  0  0  0  0  0
  -13.6290  -47.5950  -15.1700 C   0  0  0  0  0  0  0  0  0  0  0  0
  -12.5820  -47.1410  -14.4430 N   0  0  0  0  0  0  0  0  0  0  0  0
  -13.4970  -48.6500  -16.0360 C   0  0  0  0  0  0  0  0  0  0  0  0
  -14.5170  -49.1510  -16.7920 C   0  0  0  0  0  0  0  0  0  0  0  0
  -12.3240  -49.3860  -16.2870 O   0  0  0  0  0  0  0  0  0  0  0  0
  -12.5360  -50.3010  -17.1350 C   0  0  0  0  0  0  0  0  0  0  0  0
  -13.8880  -50.2250  -17.5140 C   0  0  0  0  0  0  0  0  0  0  0  0
  -11.5830  -51.1800  -17.6190 C   0  0  0  0  0  0  0  0  0  0  0  0
  -10.3400  -51.2200  -17.0240 C   0  0  0  0  0  0  0  0  0  0  0  0
   -9.8850  -50.2280  -15.6310 S   0  0  0  0  0  0  0  0  0  0  0  0
   -8.2640  -50.9700  -15.6220 N   0  0  0  0  0  0  0  0  0  0  0  0
   -8.2150  -51.9210  -16.6880 N   0  0  0  0  0  0  0  0  0  0  0  0
   -9.3290  -52.0640  -17.4680 C   0  0  0  0  0  0  0  0  0  0  0  0
   -9.5790  -52.8870  -18.5630 C   0  0  0  0  0  0  0  0  0  0  0  0
  -10.8250  -52.8490  -19.1970 C   0  0  0  0  0  0  0  0  0  0  0  0
  -11.8190  -51.9900  -18.7350 C   0  0  0  0  0  0  0  0  0  0  0  0
  -22.9722  -46.7852  -21.4922 H   0  0  0  0  0  0  0  0  0  0  0  0
  -24.3458  -47.5242  -22.3829 H   0  0  0  0  0  0  0  0  0  0  0  0
  -22.6651  -47.7524  -22.9743 H   0  0  0  0  0  0  0  0  0  0  0  0
  -22.7653  -47.4342  -18.3413 H   0  0  0  0  0  0  0  0  0  0  0  0
  -22.5582  -46.6725  -19.9549 H   0  0  0  0  0  0  0  0  0  0  0  0
  -20.3649  -46.7672  -18.7420 H   0  0  0  0  0  0  0  0  0  0  0  0
  -20.3357  -47.8177  -20.1989 H   0  0  0  0  0  0  0  0  0  0  0  0
  -20.9142  -48.7233  -17.3433 H   0  0  0  0  0  0  0  0  0  0  0  0
  -20.8652  -51.0094  -18.2652 H   0  0  0  0  0  0  0  0  0  0  0  0
  -20.5968  -50.3490  -19.9139 H   0  0  0  0  0  0  0  0  0  0  0  0
  -23.0144  -50.8463  -19.5591 H   0  0  0  0  0  0  0  0  0  0  0  0
  -23.0311  -49.7686  -18.1220 H   0  0  0  0  0  0  0  0  0  0  0  0
  -18.4464  -47.5984  -16.5736 H   0  0  0  0  0  0  0  0  0  0  0  0
  -16.2015  -50.5764  -18.7384 H   0  0  0  0  0  0  0  0  0  0  0  0
  -16.8474  -46.9979  -15.6783 H   0  0  0  0  0  0  0  0  0  0  0  0
  -11.6606  -47.5931  -14.5292 H   0  0  0  0  0  0  0  0  0  0  0  0
  -12.7064  -46.3433  -13.8034 H   0  0  0  0  0  0  0  0  0  0  0  0
  -14.3796  -50.8741  -18.2371 H   0  0  0  0  0  0  0  0  0  0  0  0
   -8.8075  -53.5574  -18.9242 H   0  0  0  0  0  0  0  0  0  0  0  0
  -11.0175  -53.4897  -20.0500 H   0  0  0  0  0  0  0  0  0  0  0  0
  -12.7769  -51.9489  -19.2408 H   0  0  0  0  0  0  0  0  0  0  0  0
  1  2  2  0  0  0  0
  2  3  1  0  0  0  0
  2  4  1  0  0  0  0
  3 34  1  0  0  0  0
  3 35  1  0  0  0  0
  3 36  1  0  0  0  0
  4  5  1  0  0  0  0
  4  9  1  0  0  0  0
  5  6  1  0  0  0  0
  5 37  1  0  0  0  0
  5 38  1  0  0  0  0
  6  7  1  0  0  0  0
  6 39  1  0  0  0  0
  6 40  1  0  0  0  0
  7  8  1  0  0  0  0
  7 10  1  0  0  0  0
  7 41  1  0  0  0  0
  8  9  1  0  0  0  0
  8 42  1  0  0  0  0
  8 43  1  0  0  0  0
  9 44  1  0  0  0  0
  9 45  1  0  0  0  0
 10 11  1  0  0  0  0
 10 14  1  0  0  0  0
 11 12  2  0  0  0  0
 11 46  1  0  0  0  0
 12 13  1  0  0  0  0
 12 15  1  0  0  0  0
 13 14  2  0  0  0  0
 13 47  1  0  0  0  0
 15 16  2  0  0  0  0
 15 21  1  0  0  0  0
 16 17  1  0  0  0  0
 16 48  1  0  0  0  0
 17 18  2  0  0  0  0
 18 19  1  0  0  0  0
 18 20  1  0  0  0  0
 19 49  1  0  0  0  0
 19 50  1  0  0  0  0
 20 21  2  0  0  0  0
 20 22  1  0  0  0  0
 21 24  1  0  0  0  0
 22 23  1  0  0  0  0
 23 24  2  0  0  0  0
 23 25  1  0  0  0  0
 24 51  1  0  0  0  0
 25 26  2  0  0  0  0
 25 33  1  0  0  0  0
 26 27  1  0  0  0  0
 26 30  1  0  0  0  0
 27 28  1  0  0  0  0
 28 29  2  0  0  0  0
 29 30  1  0  0  0  0
 30 31  2  0  0  0  0
 31 32  1  0  0  0  0
 31 52  1  0  0  0  0
 32 33  2  0  0  0  0
 32 53  1  0  0  0  0
 33 54  1  0  0  0  0
M  END
