4l53_ligand
 OpenBabel08222323353D

 51 56  0  0  1  0  0  0  0  0999 V2000
  -24.8830  -48.2210  -19.3900 O   0  0  0  0  0  0  0  0  0  0  0  0
  -23.4600  -48.3350  -19.4590 C   0  0  1  0  0  0  0  0  0  0  0  0
  -22.8210  -47.3990  -18.4290 C   0  0  0  0  0  0  0  0  0  0  0  0
  -21.2960  -47.5340  -18.4750 C   0  0  0  0  0  0  0  0  0  0  0  0
  -20.8990  -48.9810  -18.1960 C   0  0  1  0  0  0  0  0  0  0  0  0
  -21.5200  -49.9000  -19.2070 C   0  0  0  0  0  0  0  0  0  0  0  0
  -23.0460  -49.7770  -19.1530 C   0  0  0  0  0  0  0  0  0  0  0  0
  -19.4350  -49.0730  -18.1600 N   0  0  0  0  0  0  0  0  0  0  0  0
  -18.6250  -48.5830  -17.1990 C   0  0  0  0  0  0  0  0  0  0  0  0
  -17.3250  -48.8950  -17.5080 C   0  0  0  0  0  0  0  0  0  0  0  0
  -17.3880  -49.5780  -18.7450 C   0  0  0  0  0  0  0  0  0  0  0  0
  -18.6380  -49.7050  -19.1170 N   0  0  0  0  0  0  0  0  0  0  0  0
  -16.0980  -48.4990  -16.7440 C   0  0  0  0  0  0  0  0  0  0  0  0
  -16.2010  -47.3640  -15.9250 C   0  0  0  0  0  0  0  0  0  0  0  0
  -15.1860  -46.8820  -15.2280 N   0  0  0  0  0  0  0  0  0  0  0  0
  -13.9900  -47.4210  -15.2600 C   0  0  0  0  0  0  0  0  0  0  0  0
  -12.9480  -46.8790  -14.5000 N   0  0  0  0  0  0  0  0  0  0  0  0
  -13.7660  -48.5400  -16.0500 C   0  0  0  0  0  0  0  0  0  0  0  0
  -12.6550  -49.2390  -16.2460 O   0  0  0  0  0  0  0  0  0  0  0  0
  -12.8270  -50.2480  -17.0970 C   0  0  0  0  0  0  0  0  0  0  0  0
  -11.6860  -51.1080  -17.4890 C   0  0  0  0  0  0  0  0  0  0  0  0
  -11.6960  -51.9960  -18.5840 C   0  0  0  0  0  0  0  0  0  0  0  0
  -10.5680  -52.7520  -18.8860 C   0  0  0  0  0  0  0  0  0  0  0  0
   -9.4130  -52.6410  -18.1420 C   0  0  0  0  0  0  0  0  0  0  0  0
   -9.3510  -51.7430  -17.0540 C   0  0  0  0  0  0  0  0  0  0  0  0
   -8.3640  -51.4500  -16.1990 N   0  0  0  0  0  0  0  0  0  0  0  0
   -8.5540  -50.5850  -15.2840 N   0  0  0  0  0  0  0  0  0  0  0  0
  -10.0120  -50.0170  -15.3590 S   0  0  0  0  0  0  0  0  0  0  0  0
  -10.5020  -50.9840  -16.7490 C   0  0  0  0  0  0  0  0  0  0  0  0
  -14.1350  -50.2600  -17.4950 C   0  0  0  0  0  0  0  0  0  0  0  0
  -14.8240  -51.4150  -18.5950 Cl  0  0  0  0  0  0  0  0  0  0  0  0
  -14.8020  -49.1260  -16.8150 C   0  0  0  0  0  0  0  0  0  0  0  0
  -25.2775  -48.8022  -20.0295 H   0  0  0  0  0  0  0  0  0  0  0  0
  -23.1185  -48.0603  -20.4679 H   0  0  0  0  0  0  0  0  0  0  0  0
  -23.1801  -47.6639  -17.4236 H   0  0  0  0  0  0  0  0  0  0  0  0
  -23.1019  -46.3602  -18.6568 H   0  0  0  0  0  0  0  0  0  0  0  0
  -20.8478  -46.8786  -17.7137 H   0  0  0  0  0  0  0  0  0  0  0  0
  -20.9328  -47.2408  -19.4711 H   0  0  0  0  0  0  0  0  0  0  0  0
  -21.2828  -49.2646  -17.2049 H   0  0  0  0  0  0  0  0  0  0  0  0
  -21.2293  -50.9373  -18.9845 H   0  0  0  0  0  0  0  0  0  0  0  0
  -21.1673  -49.6280  -20.2128 H   0  0  0  0  0  0  0  0  0  0  0  0
  -23.4935  -50.4515  -19.8978 H   0  0  0  0  0  0  0  0  0  0  0  0
  -23.3995  -50.0534  -18.1487 H   0  0  0  0  0  0  0  0  0  0  0  0
  -18.9504  -48.0291  -16.3197 H   0  0  0  0  0  0  0  0  0  0  0  0
  -16.5276  -49.9432  -19.3038 H   0  0  0  0  0  0  0  0  0  0  0  0
  -17.1578  -46.8586  -15.8608 H   0  0  0  0  0  0  0  0  0  0  0  0
  -12.0118  -47.3074  -14.5301 H   0  0  0  0  0  0  0  0  0  0  0  0
  -13.1170  -46.0516  -13.9104 H   0  0  0  0  0  0  0  0  0  0  0  0
  -12.5873  -52.0901  -19.1937 H   0  0  0  0  0  0  0  0  0  0  0  0
  -10.5979  -53.4413  -19.7221 H   0  0  0  0  0  0  0  0  0  0  0  0
   -8.5489  -53.2454  -18.3931 H   0  0  0  0  0  0  0  0  0  0  0  0
  1  2  1  0  0  0  0
  1 33  1  0  0  0  0
  2  3  1  0  0  0  0
  2  7  1  0  0  0  0
  2 34  1  6  0  0  0
  3  4  1  0  0  0  0
  3 35  1  0  0  0  0
  3 36  1  0  0  0  0
  4  5  1  0  0  0  0
  4 37  1  0  0  0  0
  4 38  1  0  0  0  0
  5  6  1  0  0  0  0
  5  8  1  0  0  0  0
  5 39  1  1  0  0  0
  6  7  1  0  0  0  0
  6 40  1  0  0  0  0
  6 41  1  0  0  0  0
  7 42  1  0  0  0  0
  7 43  1  0  0  0  0
  8  9  1  0  0  0  0
  8 12  1  0  0  0  0
  9 10  2  0  0  0  0
  9 44  1  0  0  0  0
 10 11  1  0  0  0  0
 10 13  1  0  0  0  0
 11 12  2  0  0  0  0
 11 45  1  0  0  0  0
 13 14  2  0  0  0  0
 13 32  1  0  0  0  0
 14 15  1  0  0  0  0
 14 46  1  0  0  0  0
 15 16  2  0  0  0  0
 16 17  1  0  0  0  0
 16 18  1  0  0  0  0
 17 47  1  0  0  0  0
 17 48  1  0  0  0  0
 18 19  1  0  0  0  0
 18 32  2  0  0  0  0
 19 20  1  0  0  0  0
 20 21  1  0  0  0  0
 20 30  2  0  0  0  0
 21 22  2  0  0  0  0
 21 29  1  0  0  0  0
 22 23  1  0  0  0  0
 22 49  1  0  0  0  0
 23 24  2  0  0  0  0
 23 50  1  0  0  0  0
 24 25  1  0  0  0  0
 24 51  1  0  0  0  0
 25 26  1  0  0  0  0
 25 29  2  0  0  0  0
 26 27  2  0  0  0  0
 27 28  1  0  0  0  0
 28 29  1  0  0  0  0
 30 31  1  0  0  0  0
 30 32  1  0  0  0  0
M  END
