4l5j_ligand
 OpenBabel08222323353D

 23 23  0  0  1  0  0  0  0  0999 V2000
    6.6270   28.9270   27.1790 C   0  0  1  0  0  0  0  0  0  0  0  0
    6.3030   27.5890   26.7590 O   0  0  0  0  0  0  0  0  0  0  0  0
    5.3530   29.3130   27.9010 C   0  0  2  0  0  0  0  0  0  0  0  0
    5.2720   28.6030   29.1460 O   0  0  0  0  0  0  0  0  0  0  0  0
    4.2900   28.7850   26.9570 C   0  0  2  0  0  0  0  0  0  0  0  0
    3.2420   28.1660   27.7170 O   0  0  0  0  0  0  0  0  0  0  0  0
    5.0250   27.7420   26.1180 C   0  0  1  0  0  0  0  0  0  0  0  0
    5.2180   28.3060   24.7110 C   0  0  0  0  0  0  0  0  0  0  0  0
    6.1520   27.4920   24.0080 O   0  0  0  0  0  0  0  0  0  0  0  0
    5.9250   27.1990   22.4500 P   0  0  0  0  0  0  0  0  0  0  0  0
    4.7030   28.1040   21.9250 O   0  0  0  0  0  1  0  0  0  0  0  0
    5.5580   25.6490   22.2570 O   0  0  0  0  0  1  0  0  0  0  0  0
    7.2710   27.5260   21.6370 O   0  0  0  0  0  0  0  0  0  0  0  0
    7.7600   28.9240   28.0710 O   0  0  0  0  0  0  0  0  0  0  0  0
    6.8280   29.5888   26.3236 H   0  0  0  0  0  0  0  0  0  0  0  0
    5.2732   30.3984   28.0608 H   0  0  0  0  0  0  0  0  0  0  0  0
    4.4721   28.8468   29.5969 H   0  0  0  0  0  0  0  0  0  0  0  0
    3.8786   29.5865   26.3258 H   0  0  0  0  0  0  0  0  0  0  0  0
    2.8565   28.8067   28.3031 H   0  0  0  0  0  0  0  0  0  0  0  0
    4.4769   26.7889   26.0829 H   0  0  0  0  0  0  0  0  0  0  0  0
    5.6014   29.3350   24.7757 H   0  0  0  0  0  0  0  0  0  0  0  0
    4.2554   28.3062   24.1787 H   0  0  0  0  0  0  0  0  0  0  0  0
    7.9560   29.8153   28.3352 H   0  0  0  0  0  0  0  0  0  0  0  0
  1  2  1  0  0  0  0
  1  3  1  0  0  0  0
  1 14  1  0  0  0  0
  1 15  1  6  0  0  0
  2  7  1  0  0  0  0
  3  4  1  0  0  0  0
  3  5  1  0  0  0  0
  3 16  1  1  0  0  0
  4 17  1  0  0  0  0
  5  6  1  0  0  0  0
  5  7  1  0  0  0  0
  5 18  1  6  0  0  0
  6 19  1  0  0  0  0
  7  8  1  0  0  0  0
  7 20  1  6  0  0  0
  8  9  1  0  0  0  0
  8 21  1  0  0  0  0
  8 22  1  0  0  0  0
  9 10  1  0  0  0  0
 10 11  1  0  0  0  0
 10 12  1  0  0  0  0
 10 13  2  0  0  0  0
 14 23  1  0  0  0  0
M  END
