4l6s_ligand
 OpenBabel08222323353D

 48 51  0  0  1  0  0  0  0  0999 V2000
    7.9080   -2.1170   -6.8360 C   0  0  0  0  0  0  0  0  0  0  0  0
    9.3750   -2.5360   -6.8470 C   0  0  2  0  0  0  0  0  0  0  0  0
    9.5110   -3.9190   -7.3350 O   0  0  0  0  0  0  0  0  0  0  0  0
   10.7130   -4.5530   -7.1410 C   0  0  0  0  0  0  0  0  0  0  0  0
   11.1150   -5.5690   -8.0030 C   0  0  0  0  0  0  0  0  0  0  0  0
   12.3440   -6.2070   -7.7930 C   0  0  0  0  0  0  0  0  0  0  0  0
   13.1650   -5.8190   -6.7400 C   0  0  0  0  0  0  0  0  0  0  0  0
   14.4630   -6.5520   -6.5620 C   0  0  0  0  0  0  0  0  0  0  0  0
   15.6460   -5.8370   -7.0120 N   0  3  2  0  0  0  0  0  0  0  0  0
   15.5160   -5.4490   -8.4260 C   0  0  0  0  0  0  0  0  0  0  0  0
   16.6930   -4.5860   -8.7940 C   0  0  0  0  0  0  0  0  0  0  0  0
   17.9310   -5.3870   -8.5250 C   0  0  0  0  0  0  0  0  0  0  0  0
   17.9970   -6.3470   -7.6160 C   0  0  0  0  0  0  0  0  0  0  0  0
   16.8120   -6.7150   -6.7650 C   0  0  0  0  0  0  0  0  0  0  0  0
   19.1150   -5.1110   -9.3350 C   0  0  0  0  0  0  0  0  0  0  0  0
   18.9940   -4.8730  -10.7170 C   0  0  0  0  0  0  0  0  0  0  0  0
   20.1350   -4.6440  -11.4730 C   0  0  0  0  0  0  0  0  0  0  0  0
   21.3780   -4.6680  -10.8400 C   0  0  0  0  0  0  0  0  0  0  0  0
   22.8330   -4.3800  -11.7320 Cl  0  0  0  0  0  0  0  0  0  0  0  0
   21.5000   -4.9190   -9.4830 C   0  0  0  0  0  0  0  0  0  0  0  0
   20.3730   -5.1510   -8.7260 C   0  0  0  0  0  0  0  0  0  0  0  0
   12.7740   -4.8050   -5.8590 C   0  0  0  0  0  0  0  0  0  0  0  0
   11.5710   -4.1410   -6.0980 C   0  0  0  0  0  0  0  0  0  0  0  0
   11.0820   -3.1840   -5.2090 N   0  0  0  0  0  0  0  0  0  0  0  0
    9.9750   -2.4380   -5.4510 C   0  0  0  0  0  0  0  0  0  0  0  0
    9.5260   -1.6910   -4.5610 O   0  0  0  0  0  0  0  0  0  0  0  0
    7.8247   -1.0832   -6.4695 H   0  0  0  0  0  0  0  0  0  0  0  0
    7.3401   -2.7875   -6.1743 H   0  0  0  0  0  0  0  0  0  0  0  0
    7.5015   -2.1781   -7.8563 H   0  0  0  0  0  0  0  0  0  0  0  0
    9.9274   -1.8637   -7.5199 H   0  0  0  0  0  0  0  0  0  0  0  0
   10.4812   -5.8645   -8.8313 H   0  0  0  0  0  0  0  0  0  0  0  0
   12.6566   -7.0069   -8.4544 H   0  0  0  0  0  0  0  0  0  0  0  0
   14.4010   -7.4949   -7.1250 H   0  0  0  0  0  0  0  0  0  0  0  0
   14.5854   -6.7717   -5.4911 H   0  0  0  0  0  0  0  0  0  0  0  0
   15.7519   -4.9965   -6.4657 H   0  0  0  0  0  0  0  0  0  0  0  0
   14.5826   -4.8855   -8.5720 H   0  0  0  0  0  0  0  0  0  0  0  0
   15.5037   -6.3491   -9.0582 H   0  0  0  0  0  0  0  0  0  0  0  0
   16.6956   -3.6715   -8.1827 H   0  0  0  0  0  0  0  0  0  0  0  0
   16.6434   -4.3151   -9.8590 H   0  0  0  0  0  0  0  0  0  0  0  0
   18.9342   -6.8849   -7.4805 H   0  0  0  0  0  0  0  0  0  0  0  0
   16.5259   -7.7535   -6.9879 H   0  0  0  0  0  0  0  0  0  0  0  0
   17.0983   -6.6327   -5.7061 H   0  0  0  0  0  0  0  0  0  0  0  0
   18.0172   -4.8686  -11.1871 H   0  0  0  0  0  0  0  0  0  0  0  0
   20.0617   -4.4498  -12.5370 H   0  0  0  0  0  0  0  0  0  0  0  0
   22.4793   -4.9328   -9.0185 H   0  0  0  0  0  0  0  0  0  0  0  0
   20.4606   -5.3629   -7.6665 H   0  0  0  0  0  0  0  0  0  0  0  0
   13.3927   -4.5411   -5.0089 H   0  0  0  0  0  0  0  0  0  0  0  0
   11.5724   -3.0404   -4.3494 H   0  0  0  0  0  0  0  0  0  0  0  0
  1  2  1  0  0  0  0
  1 27  1  0  0  0  0
  1 28  1  0  0  0  0
  1 29  1  0  0  0  0
  2  3  1  0  0  0  0
  2 25  1  0  0  0  0
  2 30  1  6  0  0  0
  3  4  1  0  0  0  0
  4  5  2  0  0  0  0
  4 23  1  0  0  0  0
  5  6  1  0  0  0  0
  5 31  1  0  0  0  0
  6  7  2  0  0  0  0
  6 32  1  0  0  0  0
  7  8  1  0  0  0  0
  7 22  1  0  0  0  0
  8  9  1  0  0  0  0
  8 33  1  0  0  0  0
  8 34  1  0  0  0  0
  9 10  1  0  0  0  0
  9 14  1  0  0  0  0
  9 35  1  1  0  0  0
 10 11  1  0  0  0  0
 10 36  1  0  0  0  0
 10 37  1  0  0  0  0
 11 12  1  0  0  0  0
 11 38  1  0  0  0  0
 11 39  1  0  0  0  0
 12 13  2  0  0  0  0
 12 15  1  0  0  0  0
 13 14  1  0  0  0  0
 13 40  1  0  0  0  0
 14 41  1  0  0  0  0
 14 42  1  0  0  0  0
 15 16  2  0  0  0  0
 15 21  1  0  0  0  0
 16 17  1  0  0  0  0
 16 43  1  0  0  0  0
 17 18  2  0  0  0  0
 17 44  1  0  0  0  0
 18 19  1  0  0  0  0
 18 20  1  0  0  0  0
 20 21  2  0  0  0  0
 20 45  1  0  0  0  0
 21 46  1  0  0  0  0
 22 23  2  0  0  0  0
 22 47  1  0  0  0  0
 23 24  1  0  0  0  0
 24 25  1  0  0  0  0
 24 48  1  0  0  0  0
 25 26  2  0  0  0  0
M  CHG  1   9   1
M  END
