4l70_ligand
 OpenBabel08222323353D

 46 48  0  0  1  0  0  0  0  0999 V2000
   24.4440   -1.8340   12.1930 C   0  0  0  0  0  0  0  0  0  0  0  0
   25.2160   -0.8850   11.5130 C   0  0  0  0  0  0  0  0  0  0  0  0
   25.3290    0.4160   12.0180 C   0  0  0  0  0  0  0  0  0  0  0  0
   24.6490    0.7250   13.1950 C   0  0  0  0  0  0  0  0  0  0  0  0
   23.8700   -0.1950   13.8640 C   0  0  0  0  0  0  0  0  0  0  0  0
   23.7560   -1.4930   13.3760 C   0  0  0  0  0  0  0  0  0  0  0  0
   22.9680   -2.4100   14.0820 C   0  0  2  0  0  0  0  0  0  0  0  0
   23.9200   -3.2750   14.8780 C   0  0  0  0  0  0  0  0  0  0  0  0
   23.0590   -3.8970   15.9860 C   0  0  0  0  0  0  0  0  0  0  0  0
   22.0560   -3.1830   13.1660 N   0  0  0  0  0  0  0  0  0  0  0  0
   20.7100   -3.0340   13.2300 C   0  0  0  0  0  0  0  0  0  0  0  0
   20.1470   -2.2500   13.9990 O   0  0  0  0  0  0  0  0  0  0  0  0
   19.8540   -3.8980   12.2940 C   0  0  0  0  0  0  0  0  0  0  0  0
   19.0970   -4.8820   13.2050 C   0  0  0  0  0  0  0  0  0  0  0  0
   18.1780   -5.6900   12.5020 C   0  0  0  0  0  0  0  0  0  0  0  0
   18.5300   -6.9310   12.1520 N   0  0  0  0  0  0  0  0  0  0  0  0
   17.6920   -7.7280   11.4730 C   0  0  0  0  0  0  0  0  0  0  0  0
   18.1190   -9.0160   11.2150 C   0  0  0  0  0  0  0  0  0  0  0  0
   17.2730   -9.9090   10.5240 C   0  0  0  0  0  0  0  0  0  0  0  0
   16.0010   -9.4740   10.1490 C   0  0  0  0  0  0  0  0  0  0  0  0
   15.5850   -8.1520   10.4370 C   0  0  0  0  0  0  0  0  0  0  0  0
   16.4070   -7.2950   11.1170 C   0  0  0  0  0  0  0  0  0  0  0  0
   15.9820   -5.9860   11.4540 C   0  0  0  0  0  0  0  0  0  0  0  0
   14.8460   -5.5160   11.1700 O   0  0  0  0  0  0  0  0  0  0  0  0
   16.9150   -5.2060   12.1570 N   0  0  0  0  0  0  0  0  0  0  0  0
   24.3740   -2.8439   11.8055 H   0  0  0  0  0  0  0  0  0  0  0  0
   25.7261   -1.1571   10.5960 H   0  0  0  0  0  0  0  0  0  0  0  0
   25.9282    1.1617   11.5082 H   0  0  0  0  0  0  0  0  0  0  0  0
   24.7360    1.7269   13.5997 H   0  0  0  0  0  0  0  0  0  0  0  0
   23.3470    0.0925   14.7689 H   0  0  0  0  0  0  0  0  0  0  0  0
   22.3304   -1.8582   14.7884 H   0  0  0  0  0  0  0  0  0  0  0  0
   24.7263   -2.6650   15.3114 H   0  0  0  0  0  0  0  0  0  0  0  0
   24.3552   -4.0588   14.2406 H   0  0  0  0  0  0  0  0  0  0  0  0
   23.6847   -4.5470   16.6152 H   0  0  0  0  0  0  0  0  0  0  0  0
   22.2521   -4.4918   15.5331 H   0  0  0  0  0  0  0  0  0  0  0  0
   22.6232   -3.0980   16.6038 H   0  0  0  0  0  0  0  0  0  0  0  0
   22.4497   -3.8164   12.4998 H   0  0  0  0  0  0  0  0  0  0  0  0
   20.4939   -4.4460   11.5868 H   0  0  0  0  0  0  0  0  0  0  0  0
   19.1443   -3.2700   11.7355 H   0  0  0  0  0  0  0  0  0  0  0  0
   18.5476   -4.3053   13.9636 H   0  0  0  0  0  0  0  0  0  0  0  0
   19.8301   -5.5353   13.7008 H   0  0  0  0  0  0  0  0  0  0  0  0
   19.1005   -9.3395   11.5422 H   0  0  0  0  0  0  0  0  0  0  0  0
   17.6047  -10.9139   10.2888 H   0  0  0  0  0  0  0  0  0  0  0  0
   15.3287  -10.1514    9.6350 H   0  0  0  0  0  0  0  0  0  0  0  0
   14.6060   -7.8153   10.1158 H   0  0  0  0  0  0  0  0  0  0  0  0
   16.6663   -4.2735   12.4189 H   0  0  0  0  0  0  0  0  0  0  0  0
  1  2  2  0  0  0  0
  1  6  1  0  0  0  0
  1 26  1  0  0  0  0
  2  3  1  0  0  0  0
  2 27  1  0  0  0  0
  3  4  2  0  0  0  0
  3 28  1  0  0  0  0
  4  5  1  0  0  0  0
  4 29  1  0  0  0  0
  5  6  2  0  0  0  0
  5 30  1  0  0  0  0
  6  7  1  0  0  0  0
  7  8  1  0  0  0  0
  7 10  1  0  0  0  0
  7 31  1  1  0  0  0
  8  9  1  0  0  0  0
  8 32  1  0  0  0  0
  8 33  1  0  0  0  0
  9 34  1  0  0  0  0
  9 35  1  0  0  0  0
  9 36  1  0  0  0  0
 10 11  1  0  0  0  0
 10 37  1  0  0  0  0
 11 12  2  0  0  0  0
 11 13  1  0  0  0  0
 13 14  1  0  0  0  0
 13 38  1  0  0  0  0
 13 39  1  0  0  0  0
 14 15  1  0  0  0  0
 14 40  1  0  0  0  0
 14 41  1  0  0  0  0
 15 16  2  0  0  0  0
 15 25  1  0  0  0  0
 16 17  1  0  0  0  0
 17 18  2  0  0  0  0
 17 22  1  0  0  0  0
 18 19  1  0  0  0  0
 18 42  1  0  0  0  0
 19 20  2  0  0  0  0
 19 43  1  0  0  0  0
 20 21  1  0  0  0  0
 20 44  1  0  0  0  0
 21 22  2  0  0  0  0
 21 45  1  0  0  0  0
 22 23  1  0  0  0  0
 23 24  2  0  0  0  0
 23 25  1  0  0  0  0
 25 46  1  0  0  0  0
M  END
