4l7b_ligand
 OpenBabel08222323353D

 58 62  0  0  1  0  0  0  0  0999 V2000
   -6.4000   -0.5420  -24.2500 C   0  0  0  0  0  0  0  0  0  0  0  0
   -6.1430    0.4420  -23.3090 C   0  0  0  0  0  0  0  0  0  0  0  0
   -2.9530    6.8750  -31.3880 C   0  0  0  0  0  0  0  0  0  0  0  0
   -3.4830    7.3060  -30.1960 C   0  0  0  0  0  0  0  0  0  0  0  0
   -6.3710   -0.2630  -25.6010 C   0  0  0  0  0  0  0  0  0  0  0  0
   -5.8490    1.7380  -23.6850 C   0  0  0  0  0  0  0  0  0  0  0  0
   -2.7080    5.5360  -31.5760 C   0  0  0  0  0  0  0  0  0  0  0  0
   -3.7640    6.3980  -29.2020 C   0  0  0  0  0  0  0  0  0  0  0  0
   -6.0780    1.0280  -25.9550 C   0  0  0  0  0  0  0  0  0  0  0  0
   -5.8250    1.9950  -25.0320 C   0  0  0  0  0  0  0  0  0  0  0  0
   -2.9870    4.6260  -30.5800 C   0  0  0  0  0  0  0  0  0  0  0  0
   -3.5210    5.0540  -29.3790 C   0  0  0  0  0  0  0  0  0  0  0  0
   -5.9790    1.5970  -27.2850 C   0  0  0  0  0  0  0  0  0  0  0  0
   -5.5490    3.2450  -25.7180 C   0  0  0  0  0  0  0  0  0  0  0  0
   -2.6820    2.1050  -27.5840 C   0  0  0  0  0  0  0  0  0  0  0  0
    0.0910    2.2570  -27.6220 C   0  0  0  0  0  0  0  0  0  0  0  0
   -2.6940    3.1960  -30.8520 C   0  0  0  0  0  0  0  0  0  0  0  0
   -2.6650   -0.7730  -26.4780 C   0  0  0  0  0  0  0  0  0  0  0  0
   -1.4490   -0.6050  -25.6090 C   0  0  0  0  0  0  0  0  0  0  0  0
   -2.2800   -0.4910  -27.9110 C   0  0  0  0  0  0  0  0  0  0  0  0
   -0.8250    0.7470  -25.8520 C   0  0  0  0  0  0  0  0  0  0  0  0
   -3.5140    2.3620  -29.9120 C   0  0  0  0  0  0  0  0  0  0  0  0
   -3.8720    4.1840  -28.2330 C   0  0  1  0  0  0  0  0  0  0  0  0
   -1.8440    0.9830  -28.1160 C   0  0  2  0  0  0  0  0  0  0  0  0
   -0.5170    0.9470  -27.3030 C   0  0  1  0  0  0  0  0  0  0  0  0
   -5.3310    3.8360  -28.1100 C   0  0  0  0  0  0  0  0  0  0  0  0
   -5.6500    2.9160  -27.0540 N   0  0  0  0  0  0  0  0  0  0  0  0
   -3.3120    2.8700  -28.5690 N   0  0  0  0  0  0  0  0  0  0  0  0
   -6.1510    0.9690  -28.3180 O   0  0  0  0  0  0  0  0  0  0  0  0
   -5.2840    4.2990  -25.1580 O   0  0  0  0  0  0  0  0  0  0  0  0
   -2.8220    2.3330  -26.3920 O   0  0  0  0  0  0  0  0  0  0  0  0
   -0.2310    3.0350  -28.5080 O   0  5  0  0  0  0  0  0  0  0  0  0
    1.1280    2.4960  -26.7800 O   0  0  0  0  0  0  0  0  0  0  0  0
   -6.6279   -1.5488  -23.9190 H   0  0  0  0  0  0  0  0  0  0  0  0
   -6.1733    0.1893  -22.2553 H   0  0  0  0  0  0  0  0  0  0  0  0
   -2.7296    7.5864  -32.1748 H   0  0  0  0  0  0  0  0  0  0  0  0
   -3.6795    8.3605  -30.0392 H   0  0  0  0  0  0  0  0  0  0  0  0
   -6.5699   -1.0263  -26.3446 H   0  0  0  0  0  0  0  0  0  0  0  0
   -5.6476    2.5121  -22.9533 H   0  0  0  0  0  0  0  0  0  0  0  0
   -2.2916    5.1928  -32.5161 H   0  0  0  0  0  0  0  0  0  0  0  0
   -4.1832    6.7456  -28.2647 H   0  0  0  0  0  0  0  0  0  0  0  0
   -1.6244    2.9976  -30.6892 H   0  0  0  0  0  0  0  0  0  0  0  0
   -2.9579    2.9531  -31.8919 H   0  0  0  0  0  0  0  0  0  0  0  0
   -3.4475   -0.0684  -26.1597 H   0  0  0  0  0  0  0  0  0  0  0  0
   -3.0418   -1.8029  -26.3920 H   0  0  0  0  0  0  0  0  0  0  0  0
   -0.7185   -1.3918  -25.8483 H   0  0  0  0  0  0  0  0  0  0  0  0
   -1.7424   -0.6862  -24.5520 H   0  0  0  0  0  0  0  0  0  0  0  0
   -3.1445   -0.6989  -28.5585 H   0  0  0  0  0  0  0  0  0  0  0  0
   -1.4452   -1.1504  -28.1908 H   0  0  0  0  0  0  0  0  0  0  0  0
    0.1077    0.8211  -25.2736 H   0  0  0  0  0  0  0  0  0  0  0  0
   -1.5242    1.5296  -25.5223 H   0  0  0  0  0  0  0  0  0  0  0  0
   -3.1911    1.3119  -29.9662 H   0  0  0  0  0  0  0  0  0  0  0  0
   -4.5781    2.4328  -30.1816 H   0  0  0  0  0  0  0  0  0  0  0  0
   -3.4792    4.6039  -27.2952 H   0  0  0  0  0  0  0  0  0  0  0  0
   -1.6717    1.1701  -29.1862 H   0  0  0  0  0  0  0  0  0  0  0  0
    0.1371    0.1310  -27.6439 H   0  0  0  0  0  0  0  0  0  0  0  0
   -5.6564    3.3894  -29.0611 H   0  0  0  0  0  0  0  0  0  0  0  0
   -5.8897    4.7666  -27.9317 H   0  0  0  0  0  0  0  0  0  0  0  0
  1 34  1  0  0  0  0
  2  1  2  0  0  0  0
  2 35  1  0  0  0  0
  3 36  1  0  0  0  0
  4  3  2  0  0  0  0
  4 37  1  0  0  0  0
  5  1  1  0  0  0  0
  5 38  1  0  0  0  0
  6  2  1  0  0  0  0
  6 39  1  0  0  0  0
  7  3  1  0  0  0  0
  7 40  1  0  0  0  0
  8  4  1  0  0  0  0
  8 41  1  0  0  0  0
  9  5  2  0  0  0  0
 10  6  2  0  0  0  0
 10  9  1  0  0  0  0
 11  7  2  0  0  0  0
 11 17  1  0  0  0  0
 12  8  2  0  0  0  0
 12 11  1  0  0  0  0
 13  9  1  0  0  0  0
 13 29  2  0  0  0  0
 14 10  1  0  0  0  0
 14 30  2  0  0  0  0
 15 24  1  0  0  0  0
 15 31  2  0  0  0  0
 16 32  1  0  0  0  0
 16 33  2  0  0  0  0
 17 42  1  0  0  0  0
 17 43  1  0  0  0  0
 18 19  1  0  0  0  0
 18 44  1  0  0  0  0
 18 45  1  0  0  0  0
 19 46  1  0  0  0  0
 19 47  1  0  0  0  0
 20 18  1  0  0  0  0
 20 48  1  0  0  0  0
 20 49  1  0  0  0  0
 21 19  1  0  0  0  0
 21 50  1  0  0  0  0
 21 51  1  0  0  0  0
 22 17  1  0  0  0  0
 22 52  1  0  0  0  0
 22 53  1  0  0  0  0
 23 12  1  0  0  0  0
 23 28  1  0  0  0  0
 23 54  1  1  0  0  0
 24 20  1  0  0  0  0
 24 25  1  0  0  0  0
 24 55  1  6  0  0  0
 25 16  1  0  0  0  0
 25 21  1  0  0  0  0
 25 56  1  6  0  0  0
 26 23  1  0  0  0  0
 26 27  1  0  0  0  0
 26 57  1  0  0  0  0
 26 58  1  0  0  0  0
 27 13  1  0  0  0  0
 27 14  1  0  0  0  0
 28 15  1  0  0  0  0
 28 22  1  0  0  0  0
M  CHG  1  32  -1
M  END
