4l7c_ligand
 OpenBabel08222323353D

 61 66  0  0  1  0  0  0  0  0999 V2000
  -20.2970   38.5340  -36.8850 C   0  0  0  0  0  0  0  0  0  0  0  0
  -20.1430   37.0730  -37.2320 C   0  0  0  0  0  0  0  0  0  0  0  0
  -21.7960   37.9490  -33.4320 C   0  0  0  0  0  0  0  0  0  0  0  0
  -19.5540   36.3600  -36.0470 C   0  0  0  0  0  0  0  0  0  0  0  0
  -20.5580   36.4140  -34.9260 C   0  0  0  0  0  0  0  0  0  0  0  0
  -20.8090   37.8540  -34.5280 C   0  0  1  0  0  0  0  0  0  0  0  0
  -21.2210   38.7390  -35.7020 C   0  0  2  0  0  0  0  0  0  0  0  0
  -23.2160   37.4690  -35.9610 O   0  0  0  0  0  0  0  0  0  0  0  0
  -22.6420   38.5290  -36.1650 C   0  0  0  0  0  0  0  0  0  0  0  0
  -22.4690   39.0080  -33.0460 N   0  0  0  0  0  0  0  0  0  0  0  0
  -23.2520   38.6030  -31.9980 N   0  0  0  0  0  0  0  0  0  0  0  0
  -23.0710   37.3180  -31.7340 N   0  0  0  0  0  0  0  0  0  0  0  0
  -22.1630   36.9110  -32.6280 N   0  0  0  0  0  0  0  0  0  0  0  0
  -23.2430   39.5920  -36.8360 N   0  0  0  0  0  0  0  0  0  0  0  0
  -22.6910   40.9240  -36.9760 C   0  0  0  0  0  0  0  0  0  0  0  0
  -23.4260   41.8620  -36.0550 C   0  0  0  0  0  0  0  0  0  0  0  0
  -24.8890   41.7700  -36.3160 C   0  0  0  0  0  0  0  0  0  0  0  0
  -25.4490   40.6450  -36.8860 C   0  0  0  0  0  0  0  0  0  0  0  0
  -26.8090   40.6050  -37.1070 C   0  0  0  0  0  0  0  0  0  0  0  0
  -27.6070   41.6720  -36.7650 C   0  0  0  0  0  0  0  0  0  0  0  0
  -27.0460   42.7910  -36.1970 C   0  0  0  0  0  0  0  0  0  0  0  0
  -25.6900   42.8360  -35.9740 C   0  0  0  0  0  0  0  0  0  0  0  0
  -24.6180   39.4650  -37.2740 C   0  0  1  0  0  0  0  0  0  0  0  0
  -24.6780   39.3070  -38.7780 C   0  0  0  0  0  0  0  0  0  0  0  0
  -23.8590   38.2150  -39.2250 N   0  0  0  0  0  0  0  0  0  0  0  0
  -22.6640   38.3820  -39.8960 C   0  0  0  0  0  0  0  0  0  0  0  0
  -22.0770   39.3810  -40.2850 O   0  0  0  0  0  0  0  0  0  0  0  0
  -22.1760   37.0250  -40.0720 C   0  0  0  0  0  0  0  0  0  0  0  0
  -21.0200   36.6000  -40.6750 C   0  0  0  0  0  0  0  0  0  0  0  0
  -20.8020   35.2370  -40.7010 C   0  0  0  0  0  0  0  0  0  0  0  0
  -21.7100   34.3520  -40.1430 C   0  0  0  0  0  0  0  0  0  0  0  0
  -22.8680   34.7990  -39.5390 C   0  0  0  0  0  0  0  0  0  0  0  0
  -23.0670   36.1550  -39.5240 C   0  0  0  0  0  0  0  0  0  0  0  0
  -24.1790   36.9000  -38.9640 C   0  0  0  0  0  0  0  0  0  0  0  0
  -25.1390   36.3960  -38.4010 O   0  0  0  0  0  0  0  0  0  0  0  0
  -20.7104   39.0646  -37.7553 H   0  0  0  0  0  0  0  0  0  0  0  0
  -19.3077   38.9475  -36.6394 H   0  0  0  0  0  0  0  0  0  0  0  0
  -19.4745   36.9661  -38.0990 H   0  0  0  0  0  0  0  0  0  0  0  0
  -21.1266   36.6431  -37.4722 H   0  0  0  0  0  0  0  0  0  0  0  0
  -18.6222   36.8562  -35.7379 H   0  0  0  0  0  0  0  0  0  0  0  0
  -19.3424   35.3127  -36.3086 H   0  0  0  0  0  0  0  0  0  0  0  0
  -20.1682   35.8589  -34.0601 H   0  0  0  0  0  0  0  0  0  0  0  0
  -21.5018   35.9579  -35.2593 H   0  0  0  0  0  0  0  0  0  0  0  0
  -19.8563   38.2496  -34.1461 H   0  0  0  0  0  0  0  0  0  0  0  0
  -21.1295   39.7834  -35.3691 H   0  0  0  0  0  0  0  0  0  0  0  0
  -23.5284   36.7560  -31.0019 H   0  0  0  0  0  0  0  0  0  0  0  0
  -22.8068   41.2632  -38.0160 H   0  0  0  0  0  0  0  0  0  0  0  0
  -21.6233   40.9098  -36.7116 H   0  0  0  0  0  0  0  0  0  0  0  0
  -23.0859   42.8927  -36.2339 H   0  0  0  0  0  0  0  0  0  0  0  0
  -23.2220   41.5847  -35.0103 H   0  0  0  0  0  0  0  0  0  0  0  0
  -27.2541   39.7239  -37.5548 H   0  0  0  0  0  0  0  0  0  0  0  0
  -28.6755   41.6305  -36.9430 H   0  0  0  0  0  0  0  0  0  0  0  0
  -27.6703   43.6347  -35.9259 H   0  0  0  0  0  0  0  0  0  0  0  0
  -25.2481   43.7182  -35.5252 H   0  0  0  0  0  0  0  0  0  0  0  0
  -25.0459   38.5672  -36.8041 H   0  0  0  0  0  0  0  0  0  0  0  0
  -24.3241   40.2357  -39.2495 H   0  0  0  0  0  0  0  0  0  0  0  0
  -25.7197   39.1181  -39.0764 H   0  0  0  0  0  0  0  0  0  0  0  0
  -20.3136   37.2984  -41.1090 H   0  0  0  0  0  0  0  0  0  0  0  0
  -19.9025   34.8517  -41.1673 H   0  0  0  0  0  0  0  0  0  0  0  0
  -21.5072   33.2878  -40.1814 H   0  0  0  0  0  0  0  0  0  0  0  0
  -23.5830   34.1130  -39.0993 H   0  0  0  0  0  0  0  0  0  0  0  0
  1  7  1  0  0  0  0
  1 36  1  0  0  0  0
  1 37  1  0  0  0  0
  2  1  1  0  0  0  0
  2 38  1  0  0  0  0
  2 39  1  0  0  0  0
  3 10  1  0  0  0  0
  3 13  2  0  0  0  0
  4  2  1  0  0  0  0
  4 40  1  0  0  0  0
  4 41  1  0  0  0  0
  5  4  1  0  0  0  0
  5  6  1  0  0  0  0
  5 42  1  0  0  0  0
  5 43  1  0  0  0  0
  6  3  1  0  0  0  0
  6  7  1  0  0  0  0
  6 44  1  1  0  0  0
  7  9  1  0  0  0  0
  7 45  1  1  0  0  0
  9  8  2  0  0  0  0
  9 14  1  0  0  0  0
 10 11  2  0  0  0  0
 11 12  1  0  0  0  0
 12 13  1  0  0  0  0
 12 46  1  0  0  0  0
 14 15  1  0  0  0  0
 14 23  1  0  0  0  0
 15 16  1  0  0  0  0
 15 47  1  0  0  0  0
 15 48  1  0  0  0  0
 16 17  1  0  0  0  0
 16 49  1  0  0  0  0
 16 50  1  0  0  0  0
 17 18  2  0  0  0  0
 17 22  1  0  0  0  0
 18 19  1  0  0  0  0
 18 23  1  0  0  0  0
 19 20  2  0  0  0  0
 19 51  1  0  0  0  0
 20 21  1  0  0  0  0
 20 52  1  0  0  0  0
 21 22  2  0  0  0  0
 21 53  1  0  0  0  0
 22 54  1  0  0  0  0
 23 24  1  0  0  0  0
 23 55  1  1  0  0  0
 24 25  1  0  0  0  0
 24 56  1  0  0  0  0
 24 57  1  0  0  0  0
 25 26  1  0  0  0  0
 25 34  1  0  0  0  0
 26 27  2  0  0  0  0
 26 28  1  0  0  0  0
 28 29  2  0  0  0  0
 28 33  1  0  0  0  0
 29 30  1  0  0  0  0
 29 58  1  0  0  0  0
 30 31  2  0  0  0  0
 30 59  1  0  0  0  0
 31 32  1  0  0  0  0
 31 60  1  0  0  0  0
 32 33  2  0  0  0  0
 32 61  1  0  0  0  0
 33 34  1  0  0  0  0
 34 35  2  0  0  0  0
M  END
