4l7d_ligand
 OpenBabel08222323353D

 62 66  0  0  1  0  0  0  0  0999 V2000
  -27.8800   41.0790  -37.1010 C   0  0  0  0  0  0  0  0  0  0  0  0
  -26.8640   40.1620  -37.2160 C   0  0  0  0  0  0  0  0  0  0  0  0
  -25.5660   40.5180  -36.9270 C   0  0  0  0  0  0  0  0  0  0  0  0
  -24.5150   39.4700  -37.0710 C   0  0  1  0  0  0  0  0  0  0  0  0
  -25.2750   41.8060  -36.5170 C   0  0  0  0  0  0  0  0  0  0  0  0
  -23.8700   42.2090  -36.1970 C   0  0  0  0  0  0  0  0  0  0  0  0
  -22.8720   41.2360  -36.7720 C   0  0  0  0  0  0  0  0  0  0  0  0
  -24.3330   39.1600  -38.5440 C   0  0  0  0  0  0  0  0  0  0  0  0
  -27.5950   42.3600  -36.6950 C   0  0  0  0  0  0  0  0  0  0  0  0
  -26.0750   44.1330  -35.9690 C   0  0  0  0  0  0  0  0  0  0  0  0
  -26.3010   42.7260  -36.4050 C   0  0  0  0  0  0  0  0  0  0  0  0
  -23.2740   39.8840  -36.4570 N   0  0  0  0  0  0  0  0  0  0  0  0
  -23.2960   38.1880  -38.7700 N   0  0  0  0  0  0  0  0  0  0  0  0
  -23.5570   36.7700  -38.6730 C   0  0  0  0  0  0  0  0  0  0  0  0
  -22.1920   36.2280  -38.8750 C   0  0  0  0  0  0  0  0  0  0  0  0
  -21.7670   34.9220  -38.8520 C   0  0  0  0  0  0  0  0  0  0  0  0
  -20.4270   34.6710  -39.0710 C   0  0  0  0  0  0  0  0  0  0  0  0
  -19.5340   35.7000  -39.3060 C   0  0  0  0  0  0  0  0  0  0  0  0
  -19.9630   37.0100  -39.3280 C   0  0  0  0  0  0  0  0  0  0  0  0
  -21.2990   37.2300  -39.1080 C   0  0  0  0  0  0  0  0  0  0  0  0
  -21.9900   38.5090  -39.0800 C   0  0  0  0  0  0  0  0  0  0  0  0
  -21.4500   39.5820  -39.3010 O   0  0  0  0  0  0  0  0  0  0  0  0
  -22.5440   38.9650  -35.7100 C   0  0  0  0  0  0  0  0  0  0  0  0
  -22.8190   37.7740  -35.6860 O   0  0  0  0  0  0  0  0  0  0  0  0
  -21.3760   39.5070  -34.9260 C   0  0  2  0  0  0  0  0  0  0  0  0
  -20.1410   39.4380  -35.8020 C   0  0  0  0  0  0  0  0  0  0  0  0
  -19.6220   38.0240  -35.9300 C   0  0  0  0  0  0  0  0  0  0  0  0
  -19.2630   37.5110  -34.5620 C   0  0  0  0  0  0  0  0  0  0  0  0
  -20.5320   37.4040  -33.7570 C   0  0  0  0  0  0  0  0  0  0  0  0
  -21.1460   38.7830  -33.6050 C   0  0  2  0  0  0  0  0  0  0  0  0
  -22.4420   38.7170  -32.8530 C   0  0  0  0  0  0  0  0  0  0  0  0
  -22.7820   37.4530  -32.5010 O   0  5  0  0  0  0  0  0  0  0  0  0
  -23.1210   39.6950  -32.5830 O   0  0  0  0  0  0  0  0  0  0  0  0
  -28.9006   40.7936  -37.3292 H   0  0  0  0  0  0  0  0  0  0  0  0
  -27.0858   39.1506  -37.5367 H   0  0  0  0  0  0  0  0  0  0  0  0
  -24.8584   38.5573  -36.5620 H   0  0  0  0  0  0  0  0  0  0  0  0
  -23.7477   42.2426  -35.1043 H   0  0  0  0  0  0  0  0  0  0  0  0
  -23.6796   43.2072  -36.6182 H   0  0  0  0  0  0  0  0  0  0  0  0
  -21.8794   41.4323  -36.3406 H   0  0  0  0  0  0  0  0  0  0  0  0
  -22.8282   41.3595  -37.8642 H   0  0  0  0  0  0  0  0  0  0  0  0
  -24.0695   40.0885  -39.0717 H   0  0  0  0  0  0  0  0  0  0  0  0
  -25.2798   38.7674  -38.9432 H   0  0  0  0  0  0  0  0  0  0  0  0
  -28.3942   43.0865  -36.6026 H   0  0  0  0  0  0  0  0  0  0  0  0
  -25.0041   44.2881  -35.7714 H   0  0  0  0  0  0  0  0  0  0  0  0
  -26.6493   44.3293  -35.0516 H   0  0  0  0  0  0  0  0  0  0  0  0
  -26.4047   44.8201  -36.7622 H   0  0  0  0  0  0  0  0  0  0  0  0
  -24.2488   36.4301  -39.4577 H   0  0  0  0  0  0  0  0  0  0  0  0
  -23.9597   36.4980  -37.6862 H   0  0  0  0  0  0  0  0  0  0  0  0
  -22.4633   34.1120  -38.6673 H   0  0  0  0  0  0  0  0  0  0  0  0
  -20.0685   33.6481  -39.0584 H   0  0  0  0  0  0  0  0  0  0  0  0
  -18.4871   35.4747  -39.4745 H   0  0  0  0  0  0  0  0  0  0  0  0
  -19.2762   37.8285  -39.5107 H   0  0  0  0  0  0  0  0  0  0  0  0
  -21.5818   40.5624  -34.6941 H   0  0  0  0  0  0  0  0  0  0  0  0
  -19.3548   40.0671  -35.3593 H   0  0  0  0  0  0  0  0  0  0  0  0
  -20.3932   39.8167  -36.8035 H   0  0  0  0  0  0  0  0  0  0  0  0
  -18.7300   38.0149  -36.5736 H   0  0  0  0  0  0  0  0  0  0  0  0
  -20.3996   37.3838  -36.3720 H   0  0  0  0  0  0  0  0  0  0  0  0
  -18.5680   38.2088  -34.0722 H   0  0  0  0  0  0  0  0  0  0  0  0
  -18.7901   36.5214  -34.6466 H   0  0  0  0  0  0  0  0  0  0  0  0
  -20.3032   36.9919  -32.7631 H   0  0  0  0  0  0  0  0  0  0  0  0
  -21.2409   36.7410  -34.2746 H   0  0  0  0  0  0  0  0  0  0  0  0
  -20.4406   39.3872  -33.0157 H   0  0  0  0  0  0  0  0  0  0  0  0
  1  2  2  0  0  0  0
  1  9  1  0  0  0  0
  1 34  1  0  0  0  0
  2  3  1  0  0  0  0
  2 35  1  0  0  0  0
  3  4  1  0  0  0  0
  3  5  2  0  0  0  0
  4  8  1  0  0  0  0
  4 12  1  0  0  0  0
  4 36  1  1  0  0  0
  5  6  1  0  0  0  0
  5 11  1  0  0  0  0
  6  7  1  0  0  0  0
  6 37  1  0  0  0  0
  6 38  1  0  0  0  0
  7 12  1  0  0  0  0
  7 39  1  0  0  0  0
  7 40  1  0  0  0  0
  8 13  1  0  0  0  0
  8 41  1  0  0  0  0
  8 42  1  0  0  0  0
  9 11  2  0  0  0  0
  9 43  1  0  0  0  0
 10 44  1  0  0  0  0
 10 45  1  0  0  0  0
 10 46  1  0  0  0  0
 11 10  1  0  0  0  0
 12 23  1  0  0  0  0
 13 14  1  0  0  0  0
 13 21  1  0  0  0  0
 14 15  1  0  0  0  0
 14 47  1  0  0  0  0
 14 48  1  0  0  0  0
 15 16  2  0  0  0  0
 15 20  1  0  0  0  0
 16 17  1  0  0  0  0
 16 49  1  0  0  0  0
 17 18  2  0  0  0  0
 17 50  1  0  0  0  0
 18 19  1  0  0  0  0
 18 51  1  0  0  0  0
 19 20  2  0  0  0  0
 19 52  1  0  0  0  0
 20 21  1  0  0  0  0
 21 22  2  0  0  0  0
 23 24  2  0  0  0  0
 23 25  1  0  0  0  0
 25 26  1  0  0  0  0
 25 30  1  0  0  0  0
 25 53  1  1  0  0  0
 26 27  1  0  0  0  0
 26 54  1  0  0  0  0
 26 55  1  0  0  0  0
 27 28  1  0  0  0  0
 27 56  1  0  0  0  0
 27 57  1  0  0  0  0
 28 29  1  0  0  0  0
 28 58  1  0  0  0  0
 28 59  1  0  0  0  0
 29 30  1  0  0  0  0
 29 60  1  0  0  0  0
 29 61  1  0  0  0  0
 30 31  1  0  0  0  0
 30 62  1  1  0  0  0
 31 32  1  0  0  0  0
 31 33  2  0  0  0  0
M  CHG  1  32  -1
M  END
