4l7f_ligand
 OpenBabel08222323353D

 60 65  0  0  1  0  0  0  0  0999 V2000
   -3.2780   57.4580   -3.2320 F   0  0  0  0  0  0  0  0  0  0  0  0
   -3.0290   56.2600   -2.6300 C   0  0  0  0  0  0  0  0  0  0  0  0
   -3.0220   56.2110   -1.2510 C   0  0  0  0  0  0  0  0  0  0  0  0
   -2.7900   55.0140   -0.5890 C   0  0  0  0  0  0  0  0  0  0  0  0
   -2.7920   55.1020   -3.3650 C   0  0  0  0  0  0  0  0  0  0  0  0
   -2.5500   53.8850   -2.7220 C   0  0  0  0  0  0  0  0  0  0  0  0
   -2.5370   53.8430   -1.3130 C   0  0  0  0  0  0  0  0  0  0  0  0
   -2.3240   52.5930   -0.5160 C   0  0  0  0  0  0  0  0  0  0  0  0
   -1.2020   51.6410   -0.8920 C   0  0  0  0  0  0  0  0  0  0  0  0
   -2.6480   51.2640   -1.2040 C   0  0  0  0  0  0  0  0  0  0  0  0
   -2.7460   52.6830    0.8710 N   0  0  0  0  0  0  0  0  0  0  0  0
   -4.0330   52.7190    1.2420 C   0  0  0  0  0  0  0  0  0  0  0  0
   -4.9390   52.5880    0.4160 O   0  0  0  0  0  0  0  0  0  0  0  0
   -4.3190   52.8220    2.7200 C   0  0  0  0  0  0  0  0  0  0  0  0
   -3.4240   53.4700    3.5750 C   0  0  0  0  0  0  0  0  0  0  0  0
   -3.6870   53.5360    4.9330 C   0  0  0  0  0  0  0  0  0  0  0  0
   -5.4690   52.2410    3.2620 C   0  0  0  0  0  0  0  0  0  0  0  0
   -5.7330   52.3190    4.6360 C   0  0  0  0  0  0  0  0  0  0  0  0
   -6.8500   51.7290    5.2370 N   0  0  0  0  0  0  0  0  0  0  0  0
   -7.0880   51.8120    6.5560 C   0  0  0  0  0  0  0  0  0  0  0  0
   -8.2490   51.1750    6.8080 N   0  0  0  0  0  0  0  0  0  0  0  0
   -8.7250   50.7080    5.6390 C   0  0  0  0  0  0  0  0  0  0  0  0
   -7.8550   51.0730    4.6750 C   0  0  0  0  0  0  0  0  0  0  0  0
   -6.1590   52.4640    7.3630 C   0  0  0  0  0  0  0  0  0  0  0  0
   -5.0500   53.0100    6.8090 N   0  0  0  0  0  0  0  0  0  0  0  0
   -4.8240   52.9450    5.4730 C   0  0  0  0  0  0  0  0  0  0  0  0
   -6.4090   52.5390    8.6890 N   0  0  0  0  0  0  0  0  0  0  0  0
   -5.5440   53.2360    9.6020 C   0  0  2  0  0  0  0  0  0  0  0  0
   -4.5960   52.2350   10.2740 C   0  0  0  0  0  0  0  0  0  0  0  0
   -3.6390   53.0190   11.1460 C   0  0  0  0  0  0  0  0  0  0  0  0
   -6.3670   53.9820   10.6460 C   0  0  0  0  0  0  0  0  0  0  0  0
   -5.4440   54.7180   11.6090 C   0  0  0  0  0  0  0  0  0  0  0  0
   -4.4310   53.7590   12.2300 C   0  0  2  0  0  0  0  0  0  0  0  0
   -3.4980   54.4440   13.0520 O   0  0  0  0  0  0  0  0  0  0  0  0
   -3.1993   57.1153   -0.6802 H   0  0  0  0  0  0  0  0  0  0  0  0
   -2.8047   54.9854    0.4945 H   0  0  0  0  0  0  0  0  0  0  0  0
   -2.7952   55.1446   -4.4482 H   0  0  0  0  0  0  0  0  0  0  0  0
   -2.3745   52.9846   -3.2995 H   0  0  0  0  0  0  0  0  0  0  0  0
   -0.6519   51.1031   -0.1059 H   0  0  0  0  0  0  0  0  0  0  0  0
   -0.5135   51.8997   -1.7099 H   0  0  0  0  0  0  0  0  0  0  0  0
   -3.0027   51.2544   -2.2452 H   0  0  0  0  0  0  0  0  0  0  0  0
   -3.1411   50.4578   -0.6412 H   0  0  0  0  0  0  0  0  0  0  0  0
   -2.0436   52.7198    1.5818 H   0  0  0  0  0  0  0  0  0  0  0  0
   -2.5232   53.9214    3.1751 H   0  0  0  0  0  0  0  0  0  0  0  0
   -2.9955   54.0567    5.5855 H   0  0  0  0  0  0  0  0  0  0  0  0
   -6.1651   51.7238    2.6116 H   0  0  0  0  0  0  0  0  0  0  0  0
   -9.6433   50.1401    5.4974 H   0  0  0  0  0  0  0  0  0  0  0  0
   -7.9609   50.8634    3.6116 H   0  0  0  0  0  0  0  0  0  0  0  0
   -7.2524   52.0788    9.0602 H   0  0  0  0  0  0  0  0  0  0  0  0
   -4.9460   53.9669    9.0379 H   0  0  0  0  0  0  0  0  0  0  0  0
   -4.0349   51.6789    9.5085 H   0  0  0  0  0  0  0  0  0  0  0  0
   -5.1723   51.5298   10.8909 H   0  0  0  0  0  0  0  0  0  0  0  0
   -3.0922   53.7472   10.5289 H   0  0  0  0  0  0  0  0  0  0  0  0
   -2.9244   52.3296   11.6193 H   0  0  0  0  0  0  0  0  0  0  0  0
   -6.9808   53.2627   11.2080 H   0  0  0  0  0  0  0  0  0  0  0  0
   -7.0220   54.7083   10.1425 H   0  0  0  0  0  0  0  0  0  0  0  0
   -6.0465   55.1734   12.4088 H   0  0  0  0  0  0  0  0  0  0  0  0
   -4.9059   55.5058   11.0615 H   0  0  0  0  0  0  0  0  0  0  0  0
   -4.9774   53.0260   12.8417 H   0  0  0  0  0  0  0  0  0  0  0  0
   -3.9610   54.8871   13.7533 H   0  0  0  0  0  0  0  0  0  0  0  0
  1  2  1  0  0  0  0
  2  3  2  0  0  0  0
  2  5  1  0  0  0  0
  3  4  1  0  0  0  0
  3 35  1  0  0  0  0
  4  7  2  0  0  0  0
  4 36  1  0  0  0  0
  5  6  2  0  0  0  0
  5 37  1  0  0  0  0
  6  7  1  0  0  0  0
  6 38  1  0  0  0  0
  7  8  1  0  0  0  0
  8  9  1  0  0  0  0
  8 10  1  0  0  0  0
  8 11  1  0  0  0  0
  9 10  1  0  0  0  0
  9 39  1  0  0  0  0
  9 40  1  0  0  0  0
 10 41  1  0  0  0  0
 10 42  1  0  0  0  0
 11 12  1  0  0  0  0
 11 43  1  0  0  0  0
 12 13  2  0  0  0  0
 12 14  1  0  0  0  0
 14 15  2  0  0  0  0
 14 17  1  0  0  0  0
 15 16  1  0  0  0  0
 15 44  1  0  0  0  0
 16 26  2  0  0  0  0
 16 45  1  0  0  0  0
 17 18  2  0  0  0  0
 17 46  1  0  0  0  0
 18 19  1  0  0  0  0
 18 26  1  0  0  0  0
 19 20  1  0  0  0  0
 19 23  1  0  0  0  0
 20 21  2  0  0  0  0
 20 24  1  0  0  0  0
 21 22  1  0  0  0  0
 22 23  2  0  0  0  0
 22 47  1  0  0  0  0
 23 48  1  0  0  0  0
 24 25  2  0  0  0  0
 24 27  1  0  0  0  0
 25 26  1  0  0  0  0
 27 28  1  0  0  0  0
 27 49  1  0  0  0  0
 28 29  1  0  0  0  0
 28 31  1  0  0  0  0
 28 50  1  6  0  0  0
 29 30  1  0  0  0  0
 29 51  1  0  0  0  0
 29 52  1  0  0  0  0
 30 33  1  0  0  0  0
 30 53  1  0  0  0  0
 30 54  1  0  0  0  0
 31 32  1  0  0  0  0
 31 55  1  0  0  0  0
 31 56  1  0  0  0  0
 32 33  1  0  0  0  0
 32 57  1  0  0  0  0
 32 58  1  0  0  0  0
 33 34  1  0  0  0  0
 33 59  1  1  0  0  0
 34 60  1  0  0  0  0
M  END
