4l7h_ligand
 OpenBabel08222323353D

 42 45  0  0  1  0  0  0  0  0999 V2000
   17.9040   -7.2040   19.3600 C   0  0  0  0  0  0  0  0  0  0  0  0
   18.4390   -6.9090   21.6060 C   0  0  0  0  0  0  0  0  0  0  0  0
   16.5730   -8.1220   17.5340 C   0  0  0  0  0  0  0  0  0  0  0  0
   14.4570   -6.9090   16.9060 C   0  0  2  0  0  0  0  0  0  0  0  0
   12.9460   -7.0730   16.9070 C   0  0  0  0  0  0  0  0  0  0  0  0
   10.1770   -7.3920   16.8390 C   0  0  0  0  0  0  0  0  0  0  0  0
   10.8650   -7.5810   18.0220 C   0  0  0  0  0  0  0  0  0  0  0  0
   12.2420   -7.4260   18.0590 C   0  0  0  0  0  0  0  0  0  0  0  0
   19.6920   -7.4630   21.4380 C   0  0  0  0  0  0  0  0  0  0  0  0
   20.0710   -7.8980   20.1820 C   0  0  0  0  0  0  0  0  0  0  0  0
   19.1830   -7.7730   19.1050 C   0  0  0  0  0  0  0  0  0  0  0  0
   17.6080   -6.7990   20.5900 N   0  0  0  0  0  0  0  0  0  0  0  0
   16.9150   -6.9940   18.3990 N   0  0  0  0  0  0  0  0  0  0  0  0
   15.0480   -8.2520   17.3170 C   0  0  0  0  0  0  0  0  0  0  0  0
   14.9230   -5.7710   17.8940 C   0  0  1  0  0  0  0  0  0  0  0  0
   15.7180   -6.3850   19.0240 C   0  0  0  0  0  0  0  0  0  0  0  0
   15.6160   -4.8510   17.0600 O   0  0  0  0  0  0  0  0  0  0  0  0
   15.5300   -5.2770   15.7660 C   0  0  1  0  0  3  0  0  0  0  0  0
   14.8870   -6.4100   15.6110 N   0  0  0  0  0  0  0  0  0  0  0  0
   16.0720   -4.5730   14.7170 N   0  0  0  0  0  0  0  0  0  0  0  0
   12.2490   -6.8910   15.7260 C   0  0  0  0  0  0  0  0  0  0  0  0
   10.8720   -7.0450   15.6910 C   0  0  0  0  0  0  0  0  0  0  0  0
   12.8650   -7.6200   19.2420 F   0  0  0  0  0  0  0  0  0  0  0  0
    8.8310   -7.5420   16.8100 F   0  0  0  0  0  0  0  0  0  0  0  0
   19.6350   -8.2420   17.8220 C   0  0  0  0  0  0  0  0  0  0  0  0
   20.0020   -8.6220   16.8140 N   0  0  0  0  0  0  0  0  0  0  0  0
   18.1351   -6.5601   22.5863 H   0  0  0  0  0  0  0  0  0  0  0  0
   16.9449   -9.0482   17.9964 H   0  0  0  0  0  0  0  0  0  0  0  0
   17.0585   -7.9791   16.5574 H   0  0  0  0  0  0  0  0  0  0  0  0
   10.3268   -7.8511   18.9234 H   0  0  0  0  0  0  0  0  0  0  0  0
   20.3693   -7.5556   22.2793 H   0  0  0  0  0  0  0  0  0  0  0  0
   21.0517   -8.3343   20.0305 H   0  0  0  0  0  0  0  0  0  0  0  0
   14.5753   -8.5856   18.2525 H   0  0  0  0  0  0  0  0  0  0  0  0
   14.8556   -8.9909   16.5251 H   0  0  0  0  0  0  0  0  0  0  0  0
   14.0502   -5.2649   18.3322 H   0  0  0  0  0  0  0  0  0  0  0  0
   16.0163   -5.6106   19.7460 H   0  0  0  0  0  0  0  0  0  0  0  0
   15.1217   -7.1541   19.5367 H   0  0  0  0  0  0  0  0  0  0  0  0
   14.7134   -6.8750   14.7085 H   0  0  0  0  0  0  0  0  0  0  0  0
   15.9835   -4.9318   13.7556 H   0  0  0  0  0  0  0  0  0  0  0  0
   16.5666   -3.6867   14.8925 H   0  0  0  0  0  0  0  0  0  0  0  0
   12.7838   -6.6259   14.8211 H   0  0  0  0  0  0  0  0  0  0  0  0
   10.3359   -6.8933   14.7612 H   0  0  0  0  0  0  0  0  0  0  0  0
  1 11  2  0  0  0  0
  1 12  1  0  0  0  0
  2  9  1  0  0  0  0
  2 27  1  0  0  0  0
  3 13  1  0  0  0  0
  3 28  1  0  0  0  0
  3 29  1  0  0  0  0
  4  5  1  1  0  0  0
  4 14  1  0  0  0  0
  4 15  1  0  0  0  0
  4 19  1  0  0  0  0
  5 21  1  0  0  0  0
  6 22  1  0  0  0  0
  6 24  1  0  0  0  0
  7  6  2  0  0  0  0
  7  8  1  0  0  0  0
  7 30  1  0  0  0  0
  8  5  2  0  0  0  0
  8 23  1  0  0  0  0
  9 10  2  0  0  0  0
  9 31  1  0  0  0  0
 10 11  1  0  0  0  0
 10 32  1  0  0  0  0
 11 25  1  0  0  0  0
 12  2  2  0  0  0  0
 13  1  1  0  0  0  0
 13 16  1  0  0  0  0
 14  3  1  0  0  0  0
 14 33  1  0  0  0  0
 14 34  1  0  0  0  0
 15 16  1  0  0  0  0
 15 17  1  0  0  0  0
 15 35  1  1  0  0  0
 16 36  1  0  0  0  0
 16 37  1  0  0  0  0
 17 18  1  0  0  0  0
 18 19  1  0  0  0  0
 18 20  1  6  0  0  0
 19 38  1  0  0  0  0
 20 39  1  0  0  0  0
 20 40  1  0  0  0  0
 21 22  2  0  0  0  0
 21 41  1  0  0  0  0
 22 42  1  0  0  0  0
 25 26  3  0  0  0  0
M  END
