4l7n_ligand
 OpenBabel08222323353D

 48 50  0  0  1  0  0  0  0  0999 V2000
   24.3520   -2.3810   12.6390 C   0  0  0  0  0  0  0  0  0  0  0  0
   24.9550   -1.4520   11.7860 C   0  0  0  0  0  0  0  0  0  0  0  0
   24.8540   -0.0840   12.0850 C   0  0  0  0  0  0  0  0  0  0  0  0
   25.6960    1.1480   11.0320 S   0  0  0  0  0  0  0  0  0  0  0  0
   26.9310    0.4030   10.5120 O   0  0  0  0  0  0  0  0  0  0  0  0
   24.7990    1.6600    9.9060 O   0  0  0  0  0  0  0  0  0  0  0  0
   26.1820    2.3810   12.0160 N   0  0  0  0  0  0  0  0  0  0  0  0
   24.1880    0.3370   13.2320 C   0  0  0  0  0  0  0  0  0  0  0  0
   23.5510   -0.6030   14.0510 C   0  0  0  0  0  0  0  0  0  0  0  0
   23.6310   -1.9700   13.7650 C   0  0  0  0  0  0  0  0  0  0  0  0
   23.0300   -2.9330   14.6240 C   0  0  2  0  0  0  0  0  0  0  0  0
   24.0980   -3.8010   15.2750 C   0  0  0  0  0  0  0  0  0  0  0  0
   22.2200   -3.9200   13.9050 N   0  0  0  0  0  0  0  0  0  0  0  0
   20.9290   -3.8140   13.8250 C   0  0  0  0  0  0  0  0  0  0  0  0
   20.2950   -2.8580   14.2800 O   0  0  0  0  0  0  0  0  0  0  0  0
   20.3030   -4.9800   13.0790 C   0  0  0  0  0  0  0  0  0  0  0  0
   18.8360   -4.6960   13.1170 C   0  0  0  0  0  0  0  0  0  0  0  0
   18.0510   -5.6520   12.4220 C   0  0  0  0  0  0  0  0  0  0  0  0
   18.4530   -6.8890   12.0780 N   0  0  0  0  0  0  0  0  0  0  0  0
   17.5940   -7.7260   11.3810 C   0  0  0  0  0  0  0  0  0  0  0  0
   18.0060   -9.0470   11.0910 C   0  0  0  0  0  0  0  0  0  0  0  0
   17.1700   -9.9000   10.4090 C   0  0  0  0  0  0  0  0  0  0  0  0
   15.9030   -9.4880   10.0510 C   0  0  0  0  0  0  0  0  0  0  0  0
   15.4670   -8.1680   10.3920 C   0  0  0  0  0  0  0  0  0  0  0  0
   16.3310   -7.3120   11.0400 C   0  0  0  0  0  0  0  0  0  0  0  0
   15.8930   -6.0230   11.3910 C   0  0  0  0  0  0  0  0  0  0  0  0
   14.7290   -5.6210   11.1790 O   0  0  0  0  0  0  0  0  0  0  0  0
   16.7780   -5.2220   12.0810 N   0  0  0  0  0  0  0  0  0  0  0  0
   24.4449   -3.4394   12.4239 H   0  0  0  0  0  0  0  0  0  0  0  0
   25.4934   -1.7835   10.9055 H   0  0  0  0  0  0  0  0  0  0  0  0
   26.6682    3.1657   11.6314 H   0  0  0  0  0  0  0  0  0  0  0  0
   25.9902    2.3433   12.9967 H   0  0  0  0  0  0  0  0  0  0  0  0
   24.1625    1.3894   13.4906 H   0  0  0  0  0  0  0  0  0  0  0  0
   22.9899   -0.2680   14.9159 H   0  0  0  0  0  0  0  0  0  0  0  0
   22.4247   -2.4120   15.3804 H   0  0  0  0  0  0  0  0  0  0  0  0
   23.6186   -4.5391   15.9348 H   0  0  0  0  0  0  0  0  0  0  0  0
   24.7760   -3.1672   15.8654 H   0  0  0  0  0  0  0  0  0  0  0  0
   24.6710   -4.3240   14.4952 H   0  0  0  0  0  0  0  0  0  0  0  0
   22.6735   -4.6949   13.4648 H   0  0  0  0  0  0  0  0  0  0  0  0
   20.5291   -5.9315   13.5825 H   0  0  0  0  0  0  0  0  0  0  0  0
   20.6658   -5.0189   12.0413 H   0  0  0  0  0  0  0  0  0  0  0  0
   18.6617   -3.7087   12.6644 H   0  0  0  0  0  0  0  0  0  0  0  0
   18.5127   -4.6797   14.1683 H   0  0  0  0  0  0  0  0  0  0  0  0
   18.9848   -9.3889   11.4075 H   0  0  0  0  0  0  0  0  0  0  0  0
   17.5072  -10.8977   10.1523 H   0  0  0  0  0  0  0  0  0  0  0  0
   15.2420  -10.1595    9.5150 H   0  0  0  0  0  0  0  0  0  0  0  0
   14.4633   -7.8436   10.1421 H   0  0  0  0  0  0  0  0  0  0  0  0
   16.4922   -4.3005   12.3441 H   0  0  0  0  0  0  0  0  0  0  0  0
  1  2  2  0  0  0  0
  1 10  1  0  0  0  0
  1 29  1  0  0  0  0
  2  3  1  0  0  0  0
  2 30  1  0  0  0  0
  3  4  1  0  0  0  0
  3  8  2  0  0  0  0
  4  5  2  0  0  0  0
  4  6  2  0  0  0  0
  4  7  1  0  0  0  0
  7 31  1  0  0  0  0
  7 32  1  0  0  0  0
  8  9  1  0  0  0  0
  8 33  1  0  0  0  0
  9 10  2  0  0  0  0
  9 34  1  0  0  0  0
 10 11  1  0  0  0  0
 11 12  1  0  0  0  0
 11 13  1  0  0  0  0
 11 35  1  1  0  0  0
 12 36  1  0  0  0  0
 12 37  1  0  0  0  0
 12 38  1  0  0  0  0
 13 14  1  0  0  0  0
 13 39  1  0  0  0  0
 14 15  2  0  0  0  0
 14 16  1  0  0  0  0
 16 17  1  0  0  0  0
 16 40  1  0  0  0  0
 16 41  1  0  0  0  0
 17 18  1  0  0  0  0
 17 42  1  0  0  0  0
 17 43  1  0  0  0  0
 18 19  2  0  0  0  0
 18 28  1  0  0  0  0
 19 20  1  0  0  0  0
 20 21  2  0  0  0  0
 20 25  1  0  0  0  0
 21 22  1  0  0  0  0
 21 44  1  0  0  0  0
 22 23  2  0  0  0  0
 22 45  1  0  0  0  0
 23 24  1  0  0  0  0
 23 46  1  0  0  0  0
 24 25  2  0  0  0  0
 24 47  1  0  0  0  0
 25 26  1  0  0  0  0
 26 27  2  0  0  0  0
 26 28  1  0  0  0  0
 28 48  1  0  0  0  0
M  END
