4l7o_ligand
 OpenBabel08222323353D

 50 53  0  0  1  0  0  0  0  0999 V2000
   26.0140    1.2620   10.0830 C   0  0  0  0  0  0  0  0  0  0  0  0
   26.9750    2.1830    9.8200 C   0  0  0  0  0  0  0  0  0  0  0  0
   27.4490    2.6130   11.0100 N   0  0  0  0  0  0  0  0  0  0  0  0
   26.8140    1.9580   11.9850 C   0  0  0  0  0  0  0  0  0  0  0  0
   25.8960    1.1420   11.4250 N   0  0  0  0  0  0  0  0  0  0  0  0
   25.1540    0.3290   12.1690 C   0  0  0  0  0  0  0  0  0  0  0  0
   25.0290   -1.0310   11.7740 C   0  0  0  0  0  0  0  0  0  0  0  0
   24.2980   -1.9020   12.5870 C   0  0  0  0  0  0  0  0  0  0  0  0
   24.5540    0.7730   13.3590 C   0  0  0  0  0  0  0  0  0  0  0  0
   23.8220   -0.1010   14.1340 C   0  0  0  0  0  0  0  0  0  0  0  0
   23.6790   -1.4320   13.7720 C   0  0  0  0  0  0  0  0  0  0  0  0
   22.9400   -2.3290   14.6170 C   0  0  2  0  0  0  0  0  0  0  0  0
   23.9630   -3.1890   15.3890 C   0  0  0  0  0  0  0  0  0  0  0  0
   22.1080   -3.3110   13.8900 N   0  0  0  0  0  0  0  0  0  0  0  0
   20.7890   -3.1700   13.7210 C   0  0  0  0  0  0  0  0  0  0  0  0
   20.1560   -2.1880   14.1100 O   0  0  0  0  0  0  0  0  0  0  0  0
   20.1250   -4.3850   12.9930 C   0  0  0  0  0  0  0  0  0  0  0  0
   18.6310   -4.3470   13.2760 C   0  0  0  0  0  0  0  0  0  0  0  0
   17.9090   -5.3740   12.6200 C   0  0  0  0  0  0  0  0  0  0  0  0
   18.3650   -6.6040   12.3640 N   0  0  0  0  0  0  0  0  0  0  0  0
   17.5920   -7.5250   11.6860 C   0  0  0  0  0  0  0  0  0  0  0  0
   18.0840   -8.8020   11.4720 C   0  0  0  0  0  0  0  0  0  0  0  0
   17.2810   -9.7600   10.8310 C   0  0  0  0  0  0  0  0  0  0  0  0
   15.9960   -9.4490   10.4370 C   0  0  0  0  0  0  0  0  0  0  0  0
   15.4880   -8.1670   10.6870 C   0  0  0  0  0  0  0  0  0  0  0  0
   16.2850   -7.2350   11.3320 C   0  0  0  0  0  0  0  0  0  0  0  0
   15.8090   -5.9400   11.6010 C   0  0  0  0  0  0  0  0  0  0  0  0
   14.6710   -5.5500   11.3180 O   0  0  0  0  0  0  0  0  0  0  0  0
   16.6420   -5.0620   12.2380 N   0  0  0  0  0  0  0  0  0  0  0  0
   25.4365    0.7133    9.3405 H   0  0  0  0  0  0  0  0  0  0  0  0
   27.3026    2.5134    8.8354 H   0  0  0  0  0  0  0  0  0  0  0  0
   27.0045    2.0642   13.0519 H   0  0  0  0  0  0  0  0  0  0  0  0
   25.4916   -1.3856   10.8601 H   0  0  0  0  0  0  0  0  0  0  0  0
   24.2038   -2.9454   12.3088 H   0  0  0  0  0  0  0  0  0  0  0  0
   24.6669    1.8057   13.6687 H   0  0  0  0  0  0  0  0  0  0  0  0
   23.3503    0.2581   15.0415 H   0  0  0  0  0  0  0  0  0  0  0  0
   22.3113   -1.7438   15.3042 H   0  0  0  0  0  0  0  0  0  0  0  0
   23.4296   -3.8897   16.0482 H   0  0  0  0  0  0  0  0  0  0  0  0
   24.6087   -2.5357   15.9942 H   0  0  0  0  0  0  0  0  0  0  0  0
   24.5797   -3.7545   14.6750 H   0  0  0  0  0  0  0  0  0  0  0  0
   22.5531   -4.1200   13.5060 H   0  0  0  0  0  0  0  0  0  0  0  0
   20.5523   -5.3253   13.3715 H   0  0  0  0  0  0  0  0  0  0  0  0
   20.3011   -4.3121   11.9097 H   0  0  0  0  0  0  0  0  0  0  0  0
   18.2372   -3.3757   12.9421 H   0  0  0  0  0  0  0  0  0  0  0  0
   18.4785   -4.4513   14.3604 H   0  0  0  0  0  0  0  0  0  0  0  0
   19.0848   -9.0612   11.7979 H   0  0  0  0  0  0  0  0  0  0  0  0
   17.6746  -10.7526   10.6443 H   0  0  0  0  0  0  0  0  0  0  0  0
   15.3836  -10.1910    9.9376 H   0  0  0  0  0  0  0  0  0  0  0  0
   14.4817   -7.9072   10.3789 H   0  0  0  0  0  0  0  0  0  0  0  0
   16.3013   -4.1423   12.4330 H   0  0  0  0  0  0  0  0  0  0  0  0
  1  2  2  0  0  0  0
  1  5  1  0  0  0  0
  1 30  1  0  0  0  0
  2  3  1  0  0  0  0
  2 31  1  0  0  0  0
  3  4  2  0  0  0  0
  4  5  1  0  0  0  0
  4 32  1  0  0  0  0
  5  6  1  0  0  0  0
  6  7  2  0  0  0  0
  6  9  1  0  0  0  0
  7  8  1  0  0  0  0
  7 33  1  0  0  0  0
  8 11  2  0  0  0  0
  8 34  1  0  0  0  0
  9 10  2  0  0  0  0
  9 35  1  0  0  0  0
 10 11  1  0  0  0  0
 10 36  1  0  0  0  0
 11 12  1  0  0  0  0
 12 13  1  0  0  0  0
 12 14  1  0  0  0  0
 12 37  1  1  0  0  0
 13 38  1  0  0  0  0
 13 39  1  0  0  0  0
 13 40  1  0  0  0  0
 14 15  1  0  0  0  0
 14 41  1  0  0  0  0
 15 16  2  0  0  0  0
 15 17  1  0  0  0  0
 17 18  1  0  0  0  0
 17 42  1  0  0  0  0
 17 43  1  0  0  0  0
 18 19  1  0  0  0  0
 18 44  1  0  0  0  0
 18 45  1  0  0  0  0
 19 20  2  0  0  0  0
 19 29  1  0  0  0  0
 20 21  1  0  0  0  0
 21 22  2  0  0  0  0
 21 26  1  0  0  0  0
 22 23  1  0  0  0  0
 22 46  1  0  0  0  0
 23 24  2  0  0  0  0
 23 47  1  0  0  0  0
 24 25  1  0  0  0  0
 24 48  1  0  0  0  0
 25 26  2  0  0  0  0
 25 49  1  0  0  0  0
 26 27  1  0  0  0  0
 27 28  2  0  0  0  0
 27 29  1  0  0  0  0
 29 50  1  0  0  0  0
M  END
