4l8m_ligand
 OpenBabel08222323353D

 73 78  0  0  0  0  0  0  0  0999 V2000
   -0.3600   -1.9840  -15.3160 O   0  0  0  0  0  0  0  0  0  0  0  0
   -2.2630    3.9170  -23.1320 O   0  0  0  0  0  0  0  0  0  0  0  0
   -4.7760   -1.7660  -14.9090 F   0  0  0  0  0  0  0  0  0  0  0  0
    0.1250   -5.5790  -11.9550 C   0  0  0  0  0  0  0  0  0  0  0  0
   -0.4490   -6.0690  -13.1220 C   0  0  0  0  0  0  0  0  0  0  0  0
    0.2770   -4.1970  -11.7910 C   0  0  0  0  0  0  0  0  0  0  0  0
   -0.8430   -5.1710  -14.1250 C   0  0  0  0  0  0  0  0  0  0  0  0
   -0.1340   -3.3120  -12.7910 C   0  0  0  0  0  0  0  0  0  0  0  0
   -4.2050   -0.6100  -18.2340 C   0  0  0  0  0  0  0  0  0  0  0  0
   -2.7660    1.1720  -20.2540 C   0  0  0  0  0  0  0  0  0  0  0  0
   -4.8220   -0.7840  -16.9920 C   0  0  0  0  0  0  0  0  0  0  0  0
   -1.6370    1.8610  -27.5150 C   0  0  0  0  0  0  0  0  0  0  0  0
   -0.8040    1.1750  -26.6400 C   0  0  0  0  0  0  0  0  0  0  0  0
   -2.6420    2.1230  -21.2760 C   0  0  0  0  0  0  0  0  0  0  0  0
   -2.3750   -2.0320  -17.5260 C   0  0  0  0  0  0  0  0  0  0  0  0
   -1.6390   -0.4590  -21.6510 C   0  0  0  0  0  0  0  0  0  0  0  0
   -2.6160    3.0980  -25.6650 C   0  0  0  0  0  0  0  0  0  0  0  0
   -6.2770    6.2770  -29.1130 C   0  0  0  0  0  0  0  0  0  0  0  0
   -5.8590    6.2330  -31.5280 C   0  0  0  0  0  0  0  0  0  0  0  0
   -3.1940    3.0350  -29.2430 C   0  0  0  0  0  0  0  0  0  0  0  0
   -6.0980    4.7560  -29.1580 C   0  0  0  0  0  0  0  0  0  0  0  0
   -5.4320    4.7580  -31.4790 C   0  0  0  0  0  0  0  0  0  0  0  0
   -4.5510    3.0420  -29.9630 C   0  0  0  0  0  0  0  0  0  0  0  0
   -0.0130    0.6940  -24.5250 C   0  0  0  0  0  0  0  0  0  0  0  0
   -2.4220   -3.0150  -15.3370 N   0  0  0  0  0  0  0  0  0  0  0  0
   -2.2890   -1.1490  -19.6030 N   0  0  0  0  0  0  0  0  0  0  0  0
   -5.5810    6.8960  -30.2340 O   0  0  0  0  0  0  0  0  0  0  0  0
   -3.3480    3.5000  -27.8810 O   0  0  0  0  0  0  0  0  0  0  0  0
   -0.8410   -0.1400  -23.7230 O   0  0  0  0  0  0  0  0  0  0  0  0
   -1.1180   -2.8900  -14.9500 C   0  0  0  0  0  0  0  0  0  0  0  0
   -1.9730    2.7710  -23.4390 C   0  0  0  0  0  0  0  0  0  0  0  0
   -2.9780   -1.2320  -18.4760 C   0  0  0  0  0  0  0  0  0  0  0  0
   -2.2600   -0.1210  -20.4560 C   0  0  0  0  0  0  0  0  0  0  0  0
   -4.2010   -1.5980  -16.0340 C   0  0  0  0  0  0  0  0  0  0  0  0
   -2.5370    2.8160  -27.0270 C   0  0  0  0  0  0  0  0  0  0  0  0
   -0.7040   -3.7960  -13.9610 C   0  0  0  0  0  0  0  0  0  0  0  0
   -0.8860    1.4680  -25.2750 C   0  0  0  0  0  0  0  0  0  0  0  0
   -2.9750   -2.2170  -16.2930 C   0  0  0  0  0  0  0  0  0  0  0  0
   -1.4970    0.4680  -22.6670 C   0  0  0  0  0  0  0  0  0  0  0  0
   -2.0020    1.7680  -22.4790 C   0  0  0  0  0  0  0  0  0  0  0  0
   -1.7710    2.4280  -24.7840 C   0  0  0  0  0  0  0  0  0  0  0  0
   -5.0170    4.4280  -30.1060 N   0  3  0  0  0  0  0  0  0  0  0  0
    0.4522   -6.2610  -11.1785 H   0  0  0  0  0  0  0  0  0  0  0  0
   -0.5909   -7.1353  -13.2559 H   0  0  0  0  0  0  0  0  0  0  0  0
    0.7178   -3.8098  -10.8795 H   0  0  0  0  0  0  0  0  0  0  0  0
   -1.2643   -5.5559  -15.0466 H   0  0  0  0  0  0  0  0  0  0  0  0
   -0.0075   -2.2443  -12.6530 H   0  0  0  0  0  0  0  0  0  0  0  0
   -4.6724   -0.0006  -18.9990 H   0  0  0  0  0  0  0  0  0  0  0  0
   -3.2473    1.4324  -19.3183 H   0  0  0  0  0  0  0  0  0  0  0  0
   -5.7655   -0.2974  -16.7729 H   0  0  0  0  0  0  0  0  0  0  0  0
   -1.5900    1.6563  -28.5785 H   0  0  0  0  0  0  0  0  0  0  0  0
   -0.1069    0.4302  -27.0067 H   0  0  0  0  0  0  0  0  0  0  0  0
   -3.0357    3.1240  -21.1414 H   0  0  0  0  0  0  0  0  0  0  0  0
   -1.4303   -2.5158  -17.7463 H   0  0  0  0  0  0  0  0  0  0  0  0
   -1.2597   -1.4650  -21.7895 H   0  0  0  0  0  0  0  0  0  0  0  0
   -3.3259    3.8293  -25.2959 H   0  0  0  0  0  0  0  0  0  0  0  0
   -5.8643    6.6643  -28.1698 H   0  0  0  0  0  0  0  0  0  0  0  0
   -7.3484    6.5193  -29.1713 H   0  0  0  0  0  0  0  0  0  0  0  0
   -6.9367    6.2911  -31.7404 H   0  0  0  0  0  0  0  0  0  0  0  0
   -5.3001    6.7455  -32.3248 H   0  0  0  0  0  0  0  0  0  0  0  0
   -2.4963    3.6975  -29.7763 H   0  0  0  0  0  0  0  0  0  0  0  0
   -2.7928    2.0108  -29.2340 H   0  0  0  0  0  0  0  0  0  0  0  0
   -7.0348    4.2840  -29.4891 H   0  0  0  0  0  0  0  0  0  0  0  0
   -5.8349    4.3857  -28.1562 H   0  0  0  0  0  0  0  0  0  0  0  0
   -4.5909    4.5938  -32.1686 H   0  0  0  0  0  0  0  0  0  0  0  0
   -6.2775    4.1187  -31.7730 H   0  0  0  0  0  0  0  0  0  0  0  0
   -5.2819    2.4673  -29.3752 H   0  0  0  0  0  0  0  0  0  0  0  0
   -4.4414    2.5866  -30.9583 H   0  0  0  0  0  0  0  0  0  0  0  0
    0.6240    0.0851  -25.1833 H   0  0  0  0  0  0  0  0  0  0  0  0
    0.6195    1.3325  -23.8908 H   0  0  0  0  0  0  0  0  0  0  0  0
   -2.9896   -3.7154  -14.9043 H   0  0  0  0  0  0  0  0  0  0  0  0
   -1.7122   -1.9660  -19.8494 H   0  0  0  0  0  0  0  0  0  0  0  0
   -4.2331    5.0210  -29.8825 H   0  0  0  0  0  0  0  0  0  0  0  0
  4 43  1  0  0  0  0
  5  4  2  0  0  0  0
  5 44  1  0  0  0  0
  6  4  1  0  0  0  0
  6 45  1  0  0  0  0
  7  5  1  0  0  0  0
  7 46  1  0  0  0  0
  8  6  2  0  0  0  0
  8 47  1  0  0  0  0
  9 11  2  0  0  0  0
  9 48  1  0  0  0  0
 10 33  1  0  0  0  0
 10 49  1  0  0  0  0
 11 34  1  0  0  0  0
 11 50  1  0  0  0  0
 12 35  1  0  0  0  0
 12 51  1  0  0  0  0
 13 12  2  0  0  0  0
 13 52  1  0  0  0  0
 14 10  2  0  0  0  0
 14 53  1  0  0  0  0
 15 38  1  0  0  0  0
 15 54  1  0  0  0  0
 16 39  1  0  0  0  0
 16 55  1  0  0  0  0
 17 41  1  0  0  0  0
 17 56  1  0  0  0  0
 18 27  1  0  0  0  0
 18 57  1  0  0  0  0
 18 58  1  0  0  0  0
 19 27  1  0  0  0  0
 19 59  1  0  0  0  0
 19 60  1  0  0  0  0
 20 23  1  0  0  0  0
 20 61  1  0  0  0  0
 20 62  1  0  0  0  0
 21 18  1  0  0  0  0
 21 63  1  0  0  0  0
 21 64  1  0  0  0  0
 22 19  1  0  0  0  0
 22 65  1  0  0  0  0
 22 66  1  0  0  0  0
 23 42  1  0  0  0  0
 23 67  1  0  0  0  0
 23 68  1  0  0  0  0
 24 37  1  0  0  0  0
 24 69  1  0  0  0  0
 24 70  1  0  0  0  0
 25 30  1  0  0  0  0
 25 71  1  0  0  0  0
 26 32  1  0  0  0  0
 26 72  1  0  0  0  0
 28 20  1  0  0  0  0
 29 24  1  0  0  0  0
 30  1  2  0  0  0  0
 30 36  1  0  0  0  0
 31  2  2  0  0  0  0
 31 40  1  0  0  0  0
 31 41  1  0  0  0  0
 32  9  1  0  0  0  0
 32 15  2  0  0  0  0
 33 16  2  0  0  0  0
 33 26  1  0  0  0  0
 34  3  1  0  0  0  0
 34 38  2  0  0  0  0
 35 17  2  0  0  0  0
 35 28  1  0  0  0  0
 36  7  2  0  0  0  0
 36  8  1  0  0  0  0
 37 13  1  0  0  0  0
 37 41  2  0  0  0  0
 38 25  1  0  0  0  0
 39 29  1  0  0  0  0
 39 40  2  0  0  0  0
 40 14  1  0  0  0  0
 42 21  1  0  0  0  0
 42 22  1  0  0  0  0
 42 73  1  0  0  0  0
M  CHG  1  42   1
M  END
