4len_ligand
 OpenBabel08222323353D

 25 26  0  0  0  0  0  0  0  0999 V2000
   -8.7320   51.6720   12.1340 C   0  0  0  0  0  0  0  0  0  0  0  0
   -7.5320   50.9340   11.9830 C   0  0  0  0  0  0  0  0  0  0  0  0
   -6.3090   51.4130   12.4420 C   0  0  0  0  0  0  0  0  0  0  0  0
   -7.5110   53.4470   13.2520 C   0  0  0  0  0  0  0  0  0  0  0  0
   -5.5590   54.7170   14.2110 C   0  0  0  0  0  0  0  0  0  0  0  0
   -5.1190   53.4550   13.6920 C   0  0  0  0  0  0  0  0  0  0  0  0
   -4.6260   55.8690   14.8460 B   0  0  0  0  0  0  0  0  0  0  0  0
   -6.3010   52.6980   13.1150 C   0  0  0  0  0  0  0  0  0  0  0  0
   -7.2270   54.9310   14.0290 S   0  0  0  0  0  0  0  0  0  0  0  0
   -8.7350   52.9010   12.7640 C   0  0  0  0  0  0  0  0  0  0  0  0
   -3.8080   52.8550   13.6050 C   0  0  0  0  0  0  0  0  0  0  0  0
   -2.8350   53.6110   13.1240 C   0  0  0  0  0  0  0  0  0  0  0  0
   -1.6910   52.7980   12.7460 C   0  0  0  0  0  0  0  0  0  0  0  0
   -3.8560   56.3360   13.6360 O   0  0  0  0  0  0  0  0  0  0  0  0
   -5.5380   56.9450   15.4730 O   0  0  0  0  0  0  0  0  0  0  0  0
   -0.7560   53.3590   12.1320 O   0  5  0  0  0  0  0  0  0  0  0  0
   -1.7330   51.5500   12.9160 O   0  0  0  0  0  0  0  0  0  0  0  0
   -9.6608   51.2663   11.7496 H   0  0  0  0  0  0  0  0  0  0  0  0
   -7.5678   49.9667   11.4950 H   0  0  0  0  0  0  0  0  0  0  0  0
   -5.3954   50.8466   12.3018 H   0  0  0  0  0  0  0  0  0  0  0  0
   -9.6628   53.4479   12.8870 H   0  0  0  0  0  0  0  0  0  0  0  0
   -3.6290   51.8282   13.9207 H   0  0  0  0  0  0  0  0  0  0  0  0
   -2.8843   54.6944   13.0248 H   0  0  0  0  0  0  0  0  0  0  0  0
   -4.4653   56.6120   12.9614 H   0  0  0  0  0  0  0  0  0  0  0  0
   -5.9872   56.5784   16.2255 H   0  0  0  0  0  0  0  0  0  0  0  0
  1  2  2  0  0  0  0
  1 18  1  0  0  0  0
  2 19  1  0  0  0  0
  3  2  1  0  0  0  0
  3 20  1  0  0  0  0
  4  8  1  0  0  0  0
  4 10  2  0  0  0  0
  5  6  2  0  0  0  0
  5  7  1  0  0  0  0
  5  9  1  0  0  0  0
  6  8  1  0  0  0  0
  6 11  1  0  0  0  0
  7 14  1  0  0  0  0
  7 15  1  0  0  0  0
  8  3  2  0  0  0  0
  9  4  1  0  0  0  0
 10  1  1  0  0  0  0
 10 21  1  0  0  0  0
 11 12  2  0  0  0  0
 11 22  1  0  0  0  0
 12 13  1  0  0  0  0
 12 23  1  0  0  0  0
 13 16  1  0  0  0  0
 13 17  2  0  0  0  0
 14 24  1  0  0  0  0
 15 25  1  0  0  0  0
M  CHG  1  16  -1
M  END
