4lge_ligand
 OpenBabel08222323353D

 84 89  0  0  1  0  0  0  0  0999 V2000
  -22.9550    6.4510  -10.4690 N   0  3  0  0  0  0  0  0  0  0  0  0
  -24.4100    6.2740  -10.2760 C   0  0  0  0  0  0  0  0  0  0  0  0
  -22.5470    7.8260  -10.8130 C   0  0  1  0  0  0  0  0  0  0  0  0
  -21.0270    7.9660  -10.7110 C   0  0  0  0  0  0  0  0  0  0  0  0
  -23.0080    8.2050  -12.1940 C   0  0  0  0  0  0  0  0  0  0  0  0
  -23.3220    7.3350  -13.0110 O   0  0  0  0  0  0  0  0  0  0  0  0
  -23.1200    9.4980  -12.4800 N   0  0  0  0  0  0  0  0  0  0  0  0
  -23.5710   10.0070  -13.7700 C   0  0  2  0  0  0  0  0  0  0  0  0
  -22.4850   10.9380  -14.2890 C   0  0  0  0  0  0  0  0  0  0  0  0
  -21.6390   11.3820  -13.4960 O   0  0  0  0  0  0  0  0  0  0  0  0
  -24.9300   10.7830  -13.6850 C   0  0  0  0  0  0  0  0  0  0  0  0
  -24.7290   12.0800  -12.8630 C   0  0  0  0  0  0  0  0  0  0  0  0
  -26.0880   12.8050  -12.7130 C   0  0  0  0  0  0  0  0  0  0  0  0
  -27.0950   11.8730  -12.0350 C   0  0  0  0  0  0  0  0  0  0  0  0
  -27.3330   10.6180  -12.9040 C   0  0  0  0  0  0  0  0  0  0  0  0
  -26.0090    9.8440  -13.1070 C   0  0  0  0  0  0  0  0  0  0  0  0
  -22.3650   11.2430  -15.5970 N   0  0  0  0  0  0  0  0  0  0  0  0
  -23.3800   10.8100  -16.6310 C   0  0  0  0  0  0  0  0  0  0  0  0
  -22.7180   10.6150  -17.9860 C   0  0  1  0  0  0  0  0  0  0  0  0
  -23.7150   10.4300  -19.1580 C   0  0  0  0  0  0  0  0  0  0  0  0
  -22.8550   10.9130  -20.3590 C   0  0  2  0  0  0  0  0  0  0  0  0
  -21.3900   10.4540  -20.4350 C   0  0  0  0  0  0  0  0  0  0  0  0
  -21.7460   11.8190  -19.7730 C   0  0  2  0  0  0  0  0  0  0  0  0
  -22.0310   11.8950  -18.3400 N   0  3  2  0  0  0  0  0  0  0  0  0
  -20.8640   12.0610  -17.4770 C   0  0  0  0  0  0  0  0  0  0  0  0
  -21.3240   12.2010  -16.0050 C   0  0  1  0  0  0  0  0  0  0  0  0
  -21.8180   13.5900  -15.6900 C   0  0  0  0  0  0  0  0  0  0  0  0
  -23.0180   13.8200  -15.5150 O   0  0  0  0  0  0  0  0  0  0  0  0
  -20.8630   14.5200  -15.5810 N   0  0  0  0  0  0  0  0  0  0  0  0
  -21.1440   15.9110  -15.2080 C   0  0  2  0  0  0  0  0  0  0  0  0
  -21.5570   16.6710  -16.4840 C   0  0  0  0  0  0  0  0  0  0  0  0
  -20.3270   17.2330  -17.2200 C   0  0  0  0  0  0  0  0  0  0  0  0
  -19.5700   18.0640  -16.3050 O   0  0  0  0  0  0  0  0  0  0  0  0
  -19.2220   17.5340  -15.0870 C   0  0  0  0  0  0  0  0  0  0  0  0
  -18.1020   18.0540  -14.4150 C   0  0  0  0  0  0  0  0  0  0  0  0
  -17.7120   17.5380  -13.1780 C   0  0  0  0  0  0  0  0  0  0  0  0
  -18.3980   16.4900  -12.6100 C   0  0  0  0  0  0  0  0  0  0  0  0
  -19.5030   15.9840  -13.2730 C   0  0  0  0  0  0  0  0  0  0  0  0
  -19.9220   16.4970  -14.5040 C   0  0  0  0  0  0  0  0  0  0  0  0
  -22.6593    5.8392  -11.2135 H   0  0  0  0  0  0  0  0  0  0  0  0
  -22.4897    6.1891   -9.6141 H   0  0  0  0  0  0  0  0  0  0  0  0
  -24.6214    5.2243  -10.0240 H   0  0  0  0  0  0  0  0  0  0  0  0
  -24.9381    6.5420  -11.2029 H   0  0  0  0  0  0  0  0  0  0  0  0
  -24.7531    6.9238   -9.4574 H   0  0  0  0  0  0  0  0  0  0  0  0
  -23.0114    8.5149  -10.0921 H   0  0  0  0  0  0  0  0  0  0  0  0
  -20.7354    8.9946  -10.9696 H   0  0  0  0  0  0  0  0  0  0  0  0
  -20.5464    7.2627  -11.4070 H   0  0  0  0  0  0  0  0  0  0  0  0
  -20.7062    7.7414   -9.6831 H   0  0  0  0  0  0  0  0  0  0  0  0
  -22.8812   10.1601  -11.7696 H   0  0  0  0  0  0  0  0  0  0  0  0
  -23.6957    9.1618  -14.4629 H   0  0  0  0  0  0  0  0  0  0  0  0
  -25.2392   11.0707  -14.7007 H   0  0  0  0  0  0  0  0  0  0  0  0
  -24.0168   12.7379  -13.3825 H   0  0  0  0  0  0  0  0  0  0  0  0
  -24.3355   11.8270  -11.8674 H   0  0  0  0  0  0  0  0  0  0  0  0
  -26.4635   13.0884  -13.7073 H   0  0  0  0  0  0  0  0  0  0  0  0
  -25.9552   13.7086  -12.0999 H   0  0  0  0  0  0  0  0  0  0  0  0
  -28.0476   12.4057  -11.8983 H   0  0  0  0  0  0  0  0  0  0  0  0
  -26.7024   11.5662  -11.0543 H   0  0  0  0  0  0  0  0  0  0  0  0
  -27.7273   10.9250  -13.8839 H   0  0  0  0  0  0  0  0  0  0  0  0
  -28.0623    9.9638  -12.4039 H   0  0  0  0  0  0  0  0  0  0  0  0
  -25.6667    9.4484  -12.1394 H   0  0  0  0  0  0  0  0  0  0  0  0
  -26.1780    9.0107  -13.8048 H   0  0  0  0  0  0  0  0  0  0  0  0
  -24.1589   11.5818  -16.7176 H   0  0  0  0  0  0  0  0  0  0  0  0
  -23.8373    9.8615  -16.3129 H   0  0  0  0  0  0  0  0  0  0  0  0
  -22.0158    9.7697  -17.9373 H   0  0  0  0  0  0  0  0  0  0  0  0
  -24.6121   11.0530  -19.0273 H   0  0  0  0  0  0  0  0  0  0  0  0
  -24.0131    9.3774  -19.2723 H   0  0  0  0  0  0  0  0  0  0  0  0
  -23.4392   11.1272  -21.2661 H   0  0  0  0  0  0  0  0  0  0  0  0
  -20.8701   10.4317  -21.4041 H   0  0  0  0  0  0  0  0  0  0  0  0
  -21.0435    9.6151  -19.8136 H   0  0  0  0  0  0  0  0  0  0  0  0
  -21.3893   12.7672  -20.2015 H   0  0  0  0  0  0  0  0  0  0  0  0
  -22.6513   12.6728  -18.1776 H   0  0  0  0  0  0  0  0  0  0  0  0
  -20.3128   12.9647  -17.7760 H   0  0  0  0  0  0  0  0  0  0  0  0
  -20.2087   11.1829  -17.5740 H   0  0  0  0  0  0  0  0  0  0  0  0
  -20.4388   12.0093  -15.3807 H   0  0  0  0  0  0  0  0  0  0  0  0
  -19.9156   14.2557  -15.7617 H   0  0  0  0  0  0  0  0  0  0  0  0
  -21.9881   15.9349  -14.5031 H   0  0  0  0  0  0  0  0  0  0  0  0
  -22.2206   17.5034  -16.2069 H   0  0  0  0  0  0  0  0  0  0  0  0
  -22.0925   15.9825  -17.1542 H   0  0  0  0  0  0  0  0  0  0  0  0
  -20.6549   17.8352  -18.0801 H   0  0  0  0  0  0  0  0  0  0  0  0
  -19.6967   16.4032  -17.5723 H   0  0  0  0  0  0  0  0  0  0  0  0
  -17.5359   18.8633  -14.8617 H   0  0  0  0  0  0  0  0  0  0  0  0
  -16.8614   17.9669  -12.6608 H   0  0  0  0  0  0  0  0  0  0  0  0
  -18.0801   16.0690  -11.6630 H   0  0  0  0  0  0  0  0  0  0  0  0
  -20.0584   15.1678  -12.8254 H   0  0  0  0  0  0  0  0  0  0  0  0
  1  2  1  0  0  0  0
  1  3  1  0  0  0  0
  1 40  1  0  0  0  0
  1 41  1  0  0  0  0
  2 42  1  0  0  0  0
  2 43  1  0  0  0  0
  2 44  1  0  0  0  0
  3  4  1  0  0  0  0
  3  5  1  0  0  0  0
  3 45  1  1  0  0  0
  4 46  1  0  0  0  0
  4 47  1  0  0  0  0
  4 48  1  0  0  0  0
  5  6  2  0  0  0  0
  5  7  1  0  0  0  0
  7  8  1  0  0  0  0
  7 49  1  0  0  0  0
  8  9  1  0  0  0  0
  8 11  1  0  0  0  0
  8 50  1  6  0  0  0
  9 10  2  0  0  0  0
  9 17  1  0  0  0  0
 11 12  1  0  0  0  0
 11 16  1  0  0  0  0
 11 51  1  0  0  0  0
 12 13  1  0  0  0  0
 12 52  1  0  0  0  0
 12 53  1  0  0  0  0
 13 14  1  0  0  0  0
 13 54  1  0  0  0  0
 13 55  1  0  0  0  0
 14 15  1  0  0  0  0
 14 56  1  0  0  0  0
 14 57  1  0  0  0  0
 15 16  1  0  0  0  0
 15 58  1  0  0  0  0
 15 59  1  0  0  0  0
 16 60  1  0  0  0  0
 16 61  1  0  0  0  0
 17 18  1  0  0  0  0
 17 26  1  0  0  0  0
 18 19  1  0  0  0  0
 18 62  1  0  0  0  0
 18 63  1  0  0  0  0
 19 20  1  0  0  0  0
 19 24  1  0  0  0  0
 19 64  1  1  0  0  0
 20 21  1  0  0  0  0
 20 65  1  0  0  0  0
 20 66  1  0  0  0  0
 21 22  1  0  0  0  0
 21 23  1  0  0  0  0
 21 67  1  6  0  0  0
 22 23  1  0  0  0  0
 22 68  1  0  0  0  0
 22 69  1  0  0  0  0
 23 24  1  0  0  0  0
 23 70  1  6  0  0  0
 24 25  1  0  0  0  0
 24 71  1  1  0  0  0
 25 26  1  0  0  0  0
 25 72  1  0  0  0  0
 25 73  1  0  0  0  0
 26 27  1  0  0  0  0
 26 74  1  1  0  0  0
 27 28  2  0  0  0  0
 27 29  1  0  0  0  0
 29 30  1  0  0  0  0
 29 75  1  0  0  0  0
 30 31  1  0  0  0  0
 30 39  1  0  0  0  0
 30 76  1  1  0  0  0
 31 32  1  0  0  0  0
 31 77  1  0  0  0  0
 31 78  1  0  0  0  0
 32 33  1  0  0  0  0
 32 79  1  0  0  0  0
 32 80  1  0  0  0  0
 33 34  1  0  0  0  0
 34 35  2  0  0  0  0
 34 39  1  0  0  0  0
 35 36  1  0  0  0  0
 35 81  1  0  0  0  0
 36 37  2  0  0  0  0
 36 82  1  0  0  0  0
 37 38  1  0  0  0  0
 37 83  1  0  0  0  0
 38 39  2  0  0  0  0
 38 84  1  0  0  0  0
M  CHG  2   1   1  24   1
M  END
