4li6_ligand
 OpenBabel08222323353D

 50 53  0  0  0  0  0  0  0  0999 V2000
  -23.8510   -3.9880    6.1040 S   0  0  0  0  0  0  0  0  0  0  0  0
  -25.5300   -4.1180    6.4980 C   0  0  0  0  0  0  0  0  0  0  0  0
  -26.2090   -3.0000    6.2410 C   0  0  0  0  0  0  0  0  0  0  0  0
  -25.3470   -1.9480    5.6950 C   0  0  0  0  0  0  0  0  0  0  0  0
  -24.0840   -2.3560    5.5820 C   0  0  0  0  0  0  0  0  0  0  0  0
  -26.1730   -5.3660    7.0370 C   0  0  0  0  0  0  0  0  0  0  0  0
  -25.4330   -6.0630    8.0930 N   0  0  0  0  0  0  0  0  0  0  0  0
  -24.2870   -6.9120    7.7630 C   0  0  0  0  0  0  0  0  0  0  0  0
  -24.4410   -8.3980    7.8930 C   0  0  0  0  0  0  0  0  0  0  0  0
  -25.5290   -8.9750    7.5440 N   0  0  0  0  0  0  0  0  0  0  0  0
  -25.6820  -10.3130    7.6370 C   0  0  0  0  0  0  0  0  0  0  0  0
  -24.6120  -11.1060    8.0860 C   0  0  0  0  0  0  0  0  0  0  0  0
  -24.7640  -12.4920    8.1920 C   0  0  0  0  0  0  0  0  0  0  0  0
  -25.9930  -13.0650    7.8410 C   0  0  0  0  0  0  0  0  0  0  0  0
  -27.0610  -12.2760    7.3910 C   0  0  0  0  0  0  0  0  0  0  0  0
  -26.9070  -10.8900    7.2870 C   0  0  0  0  0  0  0  0  0  0  0  0
  -23.3230  -10.3940    8.4210 C   0  0  0  0  0  0  0  0  0  0  0  0
  -23.3360   -9.0550    8.3000 N   0  0  0  0  0  0  0  0  0  0  0  0
  -22.3070  -11.0120    8.7640 O   0  0  0  0  0  0  0  0  0  0  0  0
  -25.8180   -5.9170    9.3930 C   0  0  0  0  0  0  0  0  0  0  0  0
  -25.2180   -6.4920   10.3030 O   0  0  0  0  0  0  0  0  0  0  0  0
  -26.9590   -5.0040    9.8080 C   0  0  0  0  0  0  0  0  0  0  0  0
  -26.4440   -3.5300    9.9030 C   0  0  0  0  0  0  0  0  0  0  0  0
  -25.3640   -3.3570   10.9970 C   0  0  0  0  0  0  0  0  0  0  0  0
  -25.7070   -2.8090   12.2450 C   0  0  0  0  0  0  0  0  0  0  0  0
  -24.7380   -2.6470   13.2470 C   0  0  0  0  0  0  0  0  0  0  0  0
  -23.4140   -3.0340   13.0060 C   0  0  0  0  0  0  0  0  0  0  0  0
  -23.0590   -3.5790   11.7710 C   0  0  0  0  0  0  0  0  0  0  0  0
  -24.0290   -3.7350   10.7780 C   0  0  0  0  0  0  0  0  0  0  0  0
  -27.2774   -2.8823    6.4160 H   0  0  0  0  0  0  0  0  0  0  0  0
  -25.6961   -0.9549    5.4160 H   0  0  0  0  0  0  0  0  0  0  0  0
  -23.2812   -1.7268    5.2004 H   0  0  0  0  0  0  0  0  0  0  0  0
  -26.3042   -6.0664    6.1990 H   0  0  0  0  0  0  0  0  0  0  0  0
  -27.1578   -5.0898    7.4417 H   0  0  0  0  0  0  0  0  0  0  0  0
  -23.4590   -6.6118    8.4220 H   0  0  0  0  0  0  0  0  0  0  0  0
  -24.0176   -6.7030    6.7172 H   0  0  0  0  0  0  0  0  0  0  0  0
  -23.9454  -13.1119    8.5396 H   0  0  0  0  0  0  0  0  0  0  0  0
  -26.1208  -14.1386    7.9188 H   0  0  0  0  0  0  0  0  0  0  0  0
  -28.0040  -12.7393    7.1243 H   0  0  0  0  0  0  0  0  0  0  0  0
  -27.7263  -10.2710    6.9397 H   0  0  0  0  0  0  0  0  0  0  0  0
  -22.5092   -8.5357    8.5163 H   0  0  0  0  0  0  0  0  0  0  0  0
  -27.3436   -5.3212   10.7885 H   0  0  0  0  0  0  0  0  0  0  0  0
  -27.7648   -5.0627    9.0616 H   0  0  0  0  0  0  0  0  0  0  0  0
  -27.2940   -2.8723   10.1374 H   0  0  0  0  0  0  0  0  0  0  0  0
  -26.0141   -3.2418    8.9324 H   0  0  0  0  0  0  0  0  0  0  0  0
  -26.7309   -2.5083   12.4355 H   0  0  0  0  0  0  0  0  0  0  0  0
  -25.0139   -2.2231   14.2058 H   0  0  0  0  0  0  0  0  0  0  0  0
  -22.6643   -2.9102   13.7791 H   0  0  0  0  0  0  0  0  0  0  0  0
  -22.0347   -3.8800   11.5832 H   0  0  0  0  0  0  0  0  0  0  0  0
  -23.7460   -4.1559    9.8200 H   0  0  0  0  0  0  0  0  0  0  0  0
  1  2  1  0  0  0  0
  1  5  1  0  0  0  0
  2  3  2  0  0  0  0
  2  6  1  0  0  0  0
  3  4  1  0  0  0  0
  3 30  1  0  0  0  0
  4  5  2  0  0  0  0
  4 31  1  0  0  0  0
  5 32  1  0  0  0  0
  6  7  1  0  0  0  0
  6 33  1  0  0  0  0
  6 34  1  0  0  0  0
  7  8  1  0  0  0  0
  7 20  1  0  0  0  0
  8  9  1  0  0  0  0
  8 35  1  0  0  0  0
  8 36  1  0  0  0  0
  9 10  2  0  0  0  0
  9 18  1  0  0  0  0
 10 11  1  0  0  0  0
 11 12  2  0  0  0  0
 11 16  1  0  0  0  0
 12 13  1  0  0  0  0
 12 17  1  0  0  0  0
 13 14  2  0  0  0  0
 13 37  1  0  0  0  0
 14 15  1  0  0  0  0
 14 38  1  0  0  0  0
 15 16  2  0  0  0  0
 15 39  1  0  0  0  0
 16 40  1  0  0  0  0
 17 18  1  0  0  0  0
 17 19  2  0  0  0  0
 18 41  1  0  0  0  0
 20 21  2  0  0  0  0
 20 22  1  0  0  0  0
 22 23  1  0  0  0  0
 22 42  1  0  0  0  0
 22 43  1  0  0  0  0
 23 24  1  0  0  0  0
 23 44  1  0  0  0  0
 23 45  1  0  0  0  0
 24 25  2  0  0  0  0
 24 29  1  0  0  0  0
 25 26  1  0  0  0  0
 25 46  1  0  0  0  0
 26 27  2  0  0  0  0
 26 47  1  0  0  0  0
 27 28  1  0  0  0  0
 27 48  1  0  0  0  0
 28 29  2  0  0  0  0
 28 49  1  0  0  0  0
 29 50  1  0  0  0  0
M  END
