4li8_ligand
 OpenBabel08222323353D

 67 71  0  0  1  0  0  0  0  0999 V2000
  -25.9700  -13.1140    7.9420 O   0  0  0  0  0  0  0  0  0  0  0  0
  -26.7240  -12.6230    6.8380 C   0  0  0  0  0  0  0  0  0  0  0  0
  -27.0870  -11.1610    7.1360 C   0  0  0  0  0  0  0  0  0  0  0  0
  -24.6800  -12.5130    8.0880 C   0  0  0  0  0  0  0  0  0  0  0  0
  -24.7020  -11.0060    7.8750 C   0  0  0  0  0  0  0  0  0  0  0  0
  -25.8260  -10.3820    7.4360 C   0  0  0  0  0  0  0  0  0  0  0  0
  -25.8590   -9.0040    7.2310 N   0  0  0  0  0  0  0  0  0  0  0  0
  -24.7820   -8.3360    7.4830 C   0  0  0  0  0  0  0  0  0  0  0  0
  -23.5990   -8.9100    7.9370 N   0  0  0  0  0  0  0  0  0  0  0  0
  -23.4860  -10.2260    8.1490 C   0  0  0  0  0  0  0  0  0  0  0  0
  -24.6680   -6.8450    7.2950 C   0  0  0  0  0  0  0  0  0  0  0  0
  -25.6350   -5.9840    7.9860 N   0  0  0  0  0  0  0  0  0  0  0  0
  -22.4270  -10.6910    8.5480 O   0  0  0  0  0  0  0  0  0  0  0  0
  -25.7360   -6.0000    9.3410 C   0  0  0  0  0  0  0  0  0  0  0  0
  -25.0600   -6.7660   10.0420 O   0  0  0  0  0  0  0  0  0  0  0  0
  -26.7040   -5.0440   10.0540 C   0  0  0  0  0  0  0  0  0  0  0  0
  -25.9000   -4.2460   11.0240 N   0  3  2  0  0  0  0  0  0  0  0  0
  -26.6280   -3.1120   11.5970 C   0  0  0  0  0  0  0  0  0  0  0  0
  -25.8030   -2.5710   12.7750 C   0  0  0  0  0  0  0  0  0  0  0  0
  -24.3870   -2.1170   12.3520 C   0  0  2  0  0  0  0  0  0  0  0  0
  -23.7010   -3.2240   11.5170 C   0  0  0  0  0  0  0  0  0  0  0  0
  -24.6310   -3.7940   10.4370 C   0  0  0  0  0  0  0  0  0  0  0  0
  -23.5060   -1.7430   13.5600 C   0  0  0  0  0  0  0  0  0  0  0  0
  -23.5020   -2.4920   14.5360 O   0  0  0  0  0  0  0  0  0  0  0  0
  -22.6670   -0.5020   13.4840 C   0  0  0  0  0  0  0  0  0  0  0  0
  -21.7160   -0.2320   14.5040 C   0  0  0  0  0  0  0  0  0  0  0  0
  -21.0480    1.8310   13.3710 C   0  0  0  0  0  0  0  0  0  0  0  0
  -21.9820    1.5680   12.3570 C   0  0  0  0  0  0  0  0  0  0  0  0
  -20.9120    0.9310   14.4540 C   0  0  0  0  0  0  0  0  0  0  0  0
  -22.7840    0.4160   12.4180 C   0  0  0  0  0  0  0  0  0  0  0  0
  -20.2870    2.9500   13.2880 F   0  0  0  0  0  0  0  0  0  0  0  0
  -26.3580   -5.1150    7.0400 C   0  0  0  0  0  0  0  0  0  0  0  0
  -25.6560   -3.8720    6.6000 C   0  0  0  0  0  0  0  0  0  0  0  0
  -26.1120   -2.5750    6.6260 C   0  0  0  0  0  0  0  0  0  0  0  0
  -25.1680   -1.6440    6.0960 C   0  0  0  0  0  0  0  0  0  0  0  0
  -24.0160   -2.2490    5.6670 C   0  0  0  0  0  0  0  0  0  0  0  0
  -24.0570   -3.9740    5.9040 S   0  0  0  0  0  0  0  0  0  0  0  0
  -27.6402  -13.2191    6.7149 H   0  0  0  0  0  0  0  0  0  0  0  0
  -26.1230  -12.6801    5.9185 H   0  0  0  0  0  0  0  0  0  0  0  0
  -27.7596  -11.1196    8.0054 H   0  0  0  0  0  0  0  0  0  0  0  0
  -27.5903  -10.7222    6.2618 H   0  0  0  0  0  0  0  0  0  0  0  0
  -23.9980  -12.9618    7.3508 H   0  0  0  0  0  0  0  0  0  0  0  0
  -24.3096  -12.7187    9.1031 H   0  0  0  0  0  0  0  0  0  0  0  0
  -22.8094   -8.3213    8.1101 H   0  0  0  0  0  0  0  0  0  0  0  0
  -24.7632   -6.6436    6.2178 H   0  0  0  0  0  0  0  0  0  0  0  0
  -23.6651   -6.5487    7.6362 H   0  0  0  0  0  0  0  0  0  0  0  0
  -27.4765   -5.6178   10.5868 H   0  0  0  0  0  0  0  0  0  0  0  0
  -27.1824   -4.3767    9.3220 H   0  0  0  0  0  0  0  0  0  0  0  0
  -25.6730   -4.8640   11.7873 H   0  0  0  0  0  0  0  0  0  0  0  0
  -27.6154   -3.4421   11.9521 H   0  0  0  0  0  0  0  0  0  0  0  0
  -26.7552   -2.3266   10.8374 H   0  0  0  0  0  0  0  0  0  0  0  0
  -25.7072   -3.3640   13.5313 H   0  0  0  0  0  0  0  0  0  0  0  0
  -26.3330   -1.7111   13.2105 H   0  0  0  0  0  0  0  0  0  0  0  0
  -24.4931   -1.2224   11.7208 H   0  0  0  0  0  0  0  0  0  0  0  0
  -23.3980   -4.0394   12.1902 H   0  0  0  0  0  0  0  0  0  0  0  0
  -22.8103   -2.8002   11.0301 H   0  0  0  0  0  0  0  0  0  0  0  0
  -24.8373   -3.0129    9.6905 H   0  0  0  0  0  0  0  0  0  0  0  0
  -24.1361   -4.6464    9.9487 H   0  0  0  0  0  0  0  0  0  0  0  0
  -21.6050   -0.9250   15.3301 H   0  0  0  0  0  0  0  0  0  0  0  0
  -22.0849    2.2552   11.5250 H   0  0  0  0  0  0  0  0  0  0  0  0
  -20.1950    1.1316   15.2419 H   0  0  0  0  0  0  0  0  0  0  0  0
  -23.5062    0.2286   11.6317 H   0  0  0  0  0  0  0  0  0  0  0  0
  -27.3013   -4.8133    7.5187 H   0  0  0  0  0  0  0  0  0  0  0  0
  -26.5768   -5.7101    6.1411 H   0  0  0  0  0  0  0  0  0  0  0  0
  -27.0898   -2.2882    7.0102 H   0  0  0  0  0  0  0  0  0  0  0  0
  -25.3443   -0.5709    6.0390 H   0  0  0  0  0  0  0  0  0  0  0  0
  -23.1741   -1.7144    5.2295 H   0  0  0  0  0  0  0  0  0  0  0  0
  2  1  1  0  0  0  0
  2 38  1  0  0  0  0
  2 39  1  0  0  0  0
  3  2  1  0  0  0  0
  3 40  1  0  0  0  0
  3 41  1  0  0  0  0
  4  1  1  0  0  0  0
  4 42  1  0  0  0  0
  4 43  1  0  0  0  0
  5  4  1  0  0  0  0
  6  3  1  0  0  0  0
  6  5  2  0  0  0  0
  7  6  1  0  0  0  0
  8  7  2  0  0  0  0
  8  9  1  0  0  0  0
  9 10  1  0  0  0  0
  9 44  1  0  0  0  0
 10  5  1  0  0  0  0
 10 13  2  0  0  0  0
 11  8  1  0  0  0  0
 11 45  1  0  0  0  0
 11 46  1  0  0  0  0
 12 11  1  0  0  0  0
 12 32  1  0  0  0  0
 14 12  1  0  0  0  0
 14 15  2  0  0  0  0
 16 14  1  0  0  0  0
 16 47  1  0  0  0  0
 16 48  1  0  0  0  0
 17 16  1  0  0  0  0
 17 49  1  1  0  0  0
 18 17  1  0  0  0  0
 18 50  1  0  0  0  0
 18 51  1  0  0  0  0
 19 18  1  0  0  0  0
 19 52  1  0  0  0  0
 19 53  1  0  0  0  0
 20 19  1  0  0  0  0
 20 21  1  0  0  0  0
 20 54  1  6  0  0  0
 21 22  1  0  0  0  0
 21 55  1  0  0  0  0
 21 56  1  0  0  0  0
 22 17  1  0  0  0  0
 22 57  1  0  0  0  0
 22 58  1  0  0  0  0
 23 20  1  0  0  0  0
 23 24  2  0  0  0  0
 25 23  1  0  0  0  0
 25 30  1  0  0  0  0
 26 25  2  0  0  0  0
 26 59  1  0  0  0  0
 27 28  1  0  0  0  0
 27 29  2  0  0  0  0
 27 31  1  0  0  0  0
 28 30  2  0  0  0  0
 28 60  1  0  0  0  0
 29 26  1  0  0  0  0
 29 61  1  0  0  0  0
 30 62  1  0  0  0  0
 32 33  1  0  0  0  0
 32 63  1  0  0  0  0
 32 64  1  0  0  0  0
 33 34  2  0  0  0  0
 33 37  1  0  0  0  0
 34 35  1  0  0  0  0
 34 65  1  0  0  0  0
 35 36  2  0  0  0  0
 35 66  1  0  0  0  0
 36 37  1  0  0  0  0
 36 67  1  0  0  0  0
M  CHG  1  17   1
M  END
