4lkd_ligand
 OpenBabel08222323353D

 90 91  0  0  1  0  0  0  0  0999 V2000
  -19.4200   20.7010   22.7950 N   0  0  0  0  0  0  0  0  0  0  0  0
  -19.1300   19.6850   21.7890 C   0  0  2  0  0  0  0  0  0  0  0  0
  -20.3220   18.7440   21.6310 C   0  0  0  0  0  0  0  0  0  0  0  0
  -20.3960   17.7040   22.2830 O   0  0  0  0  0  0  0  0  0  0  0  0
  -17.8710   18.8960   22.1600 C   0  0  0  0  0  0  0  0  0  0  0  0
  -17.0920   18.3650   20.9610 C   0  0  0  0  0  0  0  0  0  0  0  0
  -16.3950   19.4660   20.1770 C   0  0  0  0  0  0  0  0  0  0  0  0
  -16.8930   20.5880   20.0760 O   0  0  0  0  0  0  0  0  0  0  0  0
  -15.2300   19.1490   19.6250 N   0  0  0  0  0  0  0  0  0  0  0  0
  -21.2510   19.1210   20.7560 N   0  0  0  0  0  0  0  0  0  0  0  0
  -22.5010   18.3890   20.5870 C   0  0  2  0  0  0  0  0  0  0  0  0
  -23.1260   18.1650   21.9580 C   0  0  0  0  0  0  0  0  0  0  0  0
  -23.5090   17.0440   22.3030 O   0  0  0  0  0  0  0  0  0  0  0  0
  -22.2530   17.0550   19.8720 C   0  0  0  0  0  0  0  0  0  0  0  0
  -21.2750   17.1610   18.7150 C   0  0  0  0  0  0  0  0  0  0  0  0
  -21.6880   18.2530   17.7420 C   0  0  0  0  0  0  0  0  0  0  0  0
  -20.5610   18.7170   16.9370 N   0  0  0  0  0  0  0  0  0  0  0  0
  -19.7830   19.7440   17.2650 C   0  0  0  0  0  3  0  0  0  0  0  0
  -20.0110   20.4190   18.3830 N   0  0  0  0  0  0  0  0  0  0  0  0
  -18.7770   20.0970   16.4770 N   0  0  0  0  0  0  0  0  0  0  0  0
  -23.2160   19.2480   22.7280 N   0  0  0  0  0  0  0  0  0  0  0  0
  -23.7140   19.2290   24.1020 C   0  0  2  0  0  0  0  0  0  0  0  0
  -22.6520   18.6560   25.0350 C   0  0  0  0  0  0  0  0  0  0  0  0
  -21.9700   17.6900   24.6910 O   0  0  0  0  0  0  0  0  0  0  0  0
  -25.0260   18.4610   24.2320 C   0  0  0  0  0  0  0  0  0  0  0  0
  -25.9970   18.9590   23.3460 O   0  0  0  0  0  0  0  0  0  0  0  0
  -22.5080   19.2620   26.2100 N   0  0  0  0  0  0  0  0  0  0  0  0
  -24.9370   25.0130   24.8140 C   0  0  1  0  0  0  0  0  0  0  0  0
  -25.6080   25.8960   25.8980 C   0  0  1  0  0  0  0  0  0  0  0  0
  -27.1020   25.5500   25.8690 C   0  0  2  0  0  0  0  0  0  0  0  0
  -27.6830   25.8320   24.4710 C   0  0  2  0  0  0  0  0  0  0  0  0
  -26.8880   25.0220   23.4150 C   0  0  1  0  0  0  0  0  0  0  0  0
  -27.2930   25.3600   21.9690 C   0  0  0  0  0  0  0  0  0  0  0  0
  -25.1350   25.5910   27.2020 O   0  0  0  0  0  0  0  0  0  0  0  0
  -27.7520   26.2860   26.8950 O   0  0  0  0  0  0  0  0  0  0  0  0
  -27.6320   27.2210   24.1590 O   0  0  0  0  0  0  0  0  0  0  0  0
  -25.4820   25.2720   23.5500 O   0  0  0  0  0  0  0  0  0  0  0  0
  -26.7200   24.4130   21.0850 O   0  0  0  0  0  0  0  0  0  0  0  0
  -20.1470   21.5400   22.0580 C   0  0  0  0  0  0  0  0  0  0  0  0
  -20.1270   21.5400   20.8260 O   0  0  0  0  0  0  0  0  0  0  0  0
  -21.0140   22.5140   22.8030 C   0  0  0  0  0  0  0  0  0  0  0  0
  -22.4100   22.3170   22.8810 C   0  0  0  0  0  0  0  0  0  0  0  0
  -23.2210   23.2320   23.5770 C   0  0  0  0  0  0  0  0  0  0  0  0
  -22.6620   24.3640   24.2040 C   0  0  0  0  0  0  0  0  0  0  0  0
  -21.2600   24.5610   24.1220 C   0  0  0  0  0  0  0  0  0  0  0  0
  -20.4480   23.6470   23.4300 C   0  0  0  0  0  0  0  0  0  0  0  0
  -23.5480   25.2020   24.8590 O   0  0  0  0  0  0  0  0  0  0  0  0
  -19.1515   20.7527   23.7569 H   0  0  0  0  0  0  0  0  0  0  0  0
  -18.9529   20.1885   20.8272 H   0  0  0  0  0  0  0  0  0  0  0  0
  -18.1707   18.0406   22.7833 H   0  0  0  0  0  0  0  0  0  0  0  0
  -17.2075   19.5562   22.7379 H   0  0  0  0  0  0  0  0  0  0  0  0
  -17.7912   17.8444   20.2901 H   0  0  0  0  0  0  0  0  0  0  0  0
  -16.3326   17.6555   21.3214 H   0  0  0  0  0  0  0  0  0  0  0  0
  -14.7246   19.8316   19.0972 H   0  0  0  0  0  0  0  0  0  0  0  0
  -14.8579   18.2276   19.7370 H   0  0  0  0  0  0  0  0  0  0  0  0
  -21.0866   19.9330   20.1959 H   0  0  0  0  0  0  0  0  0  0  0  0
  -23.1889   18.9913   19.9754 H   0  0  0  0  0  0  0  0  0  0  0  0
  -23.2130   16.6843   19.4836 H   0  0  0  0  0  0  0  0  0  0  0  0
  -21.8514   16.3376   20.6028 H   0  0  0  0  0  0  0  0  0  0  0  0
  -21.2444   16.1991   18.1823 H   0  0  0  0  0  0  0  0  0  0  0  0
  -20.2753   17.3930   19.1108 H   0  0  0  0  0  0  0  0  0  0  0  0
  -22.0926   19.1028   18.3113 H   0  0  0  0  0  0  0  0  0  0  0  0
  -22.4653   17.8573   17.0717 H   0  0  0  0  0  0  0  0  0  0  0  0
  -20.3561   18.2171   16.0601 H   0  0  0  0  0  0  0  0  0  0  0  0
  -19.4078   21.2145   18.6364 H   0  0  0  0  0  0  0  0  0  0  0  0
  -20.7913   20.1479   18.9982 H   0  0  0  0  0  0  0  0  0  0  0  0
  -18.5963   19.5753   15.6075 H   0  0  0  0  0  0  0  0  0  0  0  0
  -18.1761   20.8930   16.7343 H   0  0  0  0  0  0  0  0  0  0  0  0
  -22.9262   20.1246   22.3439 H   0  0  0  0  0  0  0  0  0  0  0  0
  -23.9067   20.2692   24.4035 H   0  0  0  0  0  0  0  0  0  0  0  0
  -25.3977   18.5578   25.2628 H   0  0  0  0  0  0  0  0  0  0  0  0
  -24.8445   17.3999   24.0057 H   0  0  0  0  0  0  0  0  0  0  0  0
  -26.8012   18.4637   23.4483 H   0  0  0  0  0  0  0  0  0  0  0  0
  -21.8272   18.9307   26.8633 H   0  0  0  0  0  0  0  0  0  0  0  0
  -23.0805   20.0489   26.4402 H   0  0  0  0  0  0  0  0  0  0  0  0
  -25.1417   23.9590   25.0531 H   0  0  0  0  0  0  0  0  0  0  0  0
  -25.4418   26.9606   25.6766 H   0  0  0  0  0  0  0  0  0  0  0  0
  -27.2248   24.4774   26.0798 H   0  0  0  0  0  0  0  0  0  0  0  0
  -28.7340   25.5077   24.4537 H   0  0  0  0  0  0  0  0  0  0  0  0
  -27.0804   23.9533   23.5903 H   0  0  0  0  0  0  0  0  0  0  0  0
  -26.9313   26.3667   21.7126 H   0  0  0  0  0  0  0  0  0  0  0  0
  -28.3888   25.3299   21.8785 H   0  0  0  0  0  0  0  0  0  0  0  0
  -24.2085   25.7937   27.2570 H   0  0  0  0  0  0  0  0  0  0  0  0
  -27.3568   26.0758   27.7330 H   0  0  0  0  0  0  0  0  0  0  0  0
  -28.0133   27.3659   23.3011 H   0  0  0  0  0  0  0  0  0  0  0  0
  -25.7736   24.4398   21.1640 H   0  0  0  0  0  0  0  0  0  0  0  0
  -22.8598   21.4551   22.4015 H   0  0  0  0  0  0  0  0  0  0  0  0
  -24.2905   23.0642   23.6319 H   0  0  0  0  0  0  0  0  0  0  0  0
  -20.8106   25.4251   24.5978 H   0  0  0  0  0  0  0  0  0  0  0  0
  -19.3780   23.8122   23.3765 H   0  0  0  0  0  0  0  0  0  0  0  0
  1  2  1  0  0  0  0
  1 48  1  0  0  0  0
  2  3  1  0  0  0  0
  2  5  1  0  0  0  0
  2 49  1  6  0  0  0
  3  4  2  0  0  0  0
  3 10  1  0  0  0  0
  5  6  1  0  0  0  0
  5 50  1  0  0  0  0
  5 51  1  0  0  0  0
  6  7  1  0  0  0  0
  6 52  1  0  0  0  0
  6 53  1  0  0  0  0
  7  8  2  0  0  0  0
  7  9  1  0  0  0  0
  9 54  1  0  0  0  0
  9 55  1  0  0  0  0
 10 11  1  0  0  0  0
 10 56  1  0  0  0  0
 11 12  1  0  0  0  0
 11 14  1  0  0  0  0
 11 57  1  6  0  0  0
 12 13  2  0  0  0  0
 12 21  1  0  0  0  0
 14 15  1  0  0  0  0
 14 58  1  0  0  0  0
 14 59  1  0  0  0  0
 15 16  1  0  0  0  0
 15 60  1  0  0  0  0
 15 61  1  0  0  0  0
 16 17  1  0  0  0  0
 16 62  1  0  0  0  0
 16 63  1  0  0  0  0
 17 18  1  0  0  0  0
 17 64  1  0  0  0  0
 18 19  1  0  0  0  0
 18 20  1  0  0  0  0
 19 65  1  0  0  0  0
 19 66  1  0  0  0  0
 20 67  1  0  0  0  0
 20 68  1  0  0  0  0
 21 22  1  0  0  0  0
 21 69  1  0  0  0  0
 22 23  1  0  0  0  0
 22 25  1  0  0  0  0
 22 70  1  1  0  0  0
 23 24  2  0  0  0  0
 23 27  1  0  0  0  0
 25 26  1  0  0  0  0
 25 71  1  0  0  0  0
 25 72  1  0  0  0  0
 26 73  1  0  0  0  0
 27 74  1  0  0  0  0
 27 75  1  0  0  0  0
 28 29  1  0  0  0  0
 28 37  1  0  0  0  0
 28 76  1  1  0  0  0
 29 30  1  0  0  0  0
 29 34  1  0  0  0  0
 29 77  1  6  0  0  0
 30 31  1  0  0  0  0
 30 35  1  0  0  0  0
 30 78  1  1  0  0  0
 31 36  1  0  0  0  0
 31 79  1  6  0  0  0
 32 31  1  0  0  0  0
 32 33  1  0  0  0  0
 32 80  1  1  0  0  0
 33 38  1  0  0  0  0
 33 81  1  0  0  0  0
 33 82  1  0  0  0  0
 34 83  1  0  0  0  0
 35 84  1  0  0  0  0
 36 85  1  0  0  0  0
 37 32  1  0  0  0  0
 38 86  1  0  0  0  0
 39  1  1  0  0  0  0
 39 40  2  0  0  0  0
 41 39  1  0  0  0  0
 41 46  1  0  0  0  0
 42 41  2  0  0  0  0
 42 87  1  0  0  0  0
 43 42  1  0  0  0  0
 43 88  1  0  0  0  0
 44 43  2  0  0  0  0
 44 45  1  0  0  0  0
 44 47  1  0  0  0  0
 45 46  2  0  0  0  0
 45 89  1  0  0  0  0
 46 90  1  0  0  0  0
 47 28  1  0  0  0  0
M  END
