4lke_ligand
 OpenBabel08222323353D

 69 72  0  0  1  0  0  0  0  0999 V2000
   21.4220  -40.3190   29.6620 N   0  0  0  0  0  0  0  0  0  0  0  0
   22.3890  -40.0840   30.7290 C   0  0  2  0  0  0  0  0  0  0  0  0
   23.3190  -41.2830   30.8310 C   0  0  0  0  0  0  0  0  0  0  0  0
   22.8650  -42.4200   30.9610 O   0  0  0  0  0  0  0  0  0  0  0  0
   21.6680  -39.8580   32.0610 C   0  0  0  0  0  0  0  0  0  0  0  0
   22.5470  -39.3600   33.1700 C   0  0  0  0  0  0  0  0  0  0  0  0
   22.7930  -38.0520   33.5060 C   0  0  0  0  0  0  0  0  0  0  0  0
   23.2810  -40.1580   34.1080 C   0  0  0  0  0  0  0  0  0  0  0  0
   23.6420  -37.9950   34.5840 N   0  0  0  0  0  0  0  0  0  0  0  0
   23.9540  -39.2720   34.9740 C   0  0  0  0  0  0  0  0  0  0  0  0
   23.4370  -41.5340   34.2960 C   0  0  0  0  0  0  0  0  0  0  0  0
   24.7730  -39.7190   36.0110 C   0  0  0  0  0  0  0  0  0  0  0  0
   24.2510  -41.9790   35.3320 C   0  0  0  0  0  0  0  0  0  0  0  0
   24.9070  -41.0730   36.1750 C   0  0  0  0  0  0  0  0  0  0  0  0
   24.6200  -41.0270   30.7550 N   0  0  0  0  0  0  0  0  0  0  0  0
   25.6160  -42.0890   30.8520 C   0  0  0  0  0  0  0  0  0  0  0  0
   26.5070  -41.8720   32.0720 C   0  0  0  0  0  0  0  0  0  0  0  0
   26.8380  -40.7340   32.4200 O   0  0  0  0  0  0  0  0  0  0  0  0
   26.8910  -42.9680   32.7190 N   0  0  0  0  0  0  0  0  0  0  0  0
   17.1830  -41.0640   24.1120 C   0  0  1  0  0  0  0  0  0  0  0  0
   15.7580  -41.1820   23.5190 C   0  0  1  0  0  0  0  0  0  0  0  0
   15.7650  -42.3270   22.4970 C   0  0  2  0  0  0  0  0  0  0  0  0
   16.8280  -42.0520   21.4290 C   0  0  2  0  0  0  0  0  0  0  0  0
   18.2140  -41.8340   22.0910 C   0  0  1  0  0  0  0  0  0  0  0  0
   19.2870  -41.3750   21.0850 C   0  0  0  0  0  0  0  0  0  0  0  0
   14.8280  -41.4820   24.5580 O   0  0  0  0  0  0  0  0  0  0  0  0
   14.4840  -42.3770   21.8900 O   0  0  0  0  0  0  0  0  0  0  0  0
   16.4230  -40.9200   20.6490 O   0  0  0  0  0  0  0  0  0  0  0  0
   18.1380  -40.8370   23.1250 O   0  0  0  0  0  0  0  0  0  0  0  0
   20.5670  -41.4440   21.6960 O   0  0  0  0  0  0  0  0  0  0  0  0
   21.1220  -39.3150   28.9950 C   0  0  0  0  0  0  0  0  0  0  0  0
   21.3790  -38.1630   29.3550 O   0  0  0  0  0  0  0  0  0  0  0  0
   20.0740  -39.5220   27.9480 C   0  0  0  0  0  0  0  0  0  0  0  0
   20.0880  -40.6490   27.1020 C   0  0  0  0  0  0  0  0  0  0  0  0
   19.0820  -40.7960   26.1220 C   0  0  0  0  0  0  0  0  0  0  0  0
   18.0750  -39.8110   25.9880 C   0  0  0  0  0  0  0  0  0  0  0  0
   18.0740  -38.6840   26.8410 C   0  0  0  0  0  0  0  0  0  0  0  0
   19.0720  -38.5430   27.8060 C   0  0  0  0  0  0  0  0  0  0  0  0
   17.1290  -40.0080   25.0190 O   0  0  0  0  0  0  0  0  0  0  0  0
   21.0300  -41.2210   29.4812 H   0  0  0  0  0  0  0  0  0  0  0  0
   22.9805  -39.1884   30.4880 H   0  0  0  0  0  0  0  0  0  0  0  0
   21.2244  -40.8135   32.3776 H   0  0  0  0  0  0  0  0  0  0  0  0
   20.8695  -39.1192   31.8980 H   0  0  0  0  0  0  0  0  0  0  0  0
   22.3761  -37.1865   32.9930 H   0  0  0  0  0  0  0  0  0  0  0  0
   23.9884  -37.1325   35.0278 H   0  0  0  0  0  0  0  0  0  0  0  0
   22.9332  -42.2409   33.6467 H   0  0  0  0  0  0  0  0  0  0  0  0
   25.2848  -39.0208   36.6634 H   0  0  0  0  0  0  0  0  0  0  0  0
   24.3798  -43.0437   35.4896 H   0  0  0  0  0  0  0  0  0  0  0  0
   25.5342  -41.4509   36.9743 H   0  0  0  0  0  0  0  0  0  0  0  0
   24.9246  -40.0830   30.6281 H   0  0  0  0  0  0  0  0  0  0  0  0
   26.2374  -42.0873   29.9444 H   0  0  0  0  0  0  0  0  0  0  0  0
   25.1045  -43.0584   30.9445 H   0  0  0  0  0  0  0  0  0  0  0  0
   27.4758  -42.8928   33.5266 H   0  0  0  0  0  0  0  0  0  0  0  0
   26.5950  -43.8677   32.3980 H   0  0  0  0  0  0  0  0  0  0  0  0
   17.4411  -41.9937   24.6402 H   0  0  0  0  0  0  0  0  0  0  0  0
   15.4751  -40.2391   23.0282 H   0  0  0  0  0  0  0  0  0  0  0  0
   15.9817  -43.2809   23.0000 H   0  0  0  0  0  0  0  0  0  0  0  0
   16.8978  -42.9261   20.7649 H   0  0  0  0  0  0  0  0  0  0  0  0
   18.5327  -42.7884   22.5354 H   0  0  0  0  0  0  0  0  0  0  0  0
   19.0825  -40.3388   20.7776 H   0  0  0  0  0  0  0  0  0  0  0  0
   19.2662  -42.0304   20.2018 H   0  0  0  0  0  0  0  0  0  0  0  0
   14.8229  -40.7737   25.1912 H   0  0  0  0  0  0  0  0  0  0  0  0
   13.8265  -42.5476   22.5542 H   0  0  0  0  0  0  0  0  0  0  0  0
   17.0603  -40.7662   19.9615 H   0  0  0  0  0  0  0  0  0  0  0  0
   20.7423  -42.3392   21.9611 H   0  0  0  0  0  0  0  0  0  0  0  0
   20.8654  -41.3977   27.2028 H   0  0  0  0  0  0  0  0  0  0  0  0
   19.0812  -41.6637   25.4722 H   0  0  0  0  0  0  0  0  0  0  0  0
   17.2999  -37.9311   26.7458 H   0  0  0  0  0  0  0  0  0  0  0  0
   19.0759  -37.6724   28.4518 H   0  0  0  0  0  0  0  0  0  0  0  0
  1  2  1  0  0  0  0
  1 40  1  0  0  0  0
  2  3  1  0  0  0  0
  2  5  1  0  0  0  0
  2 41  1  6  0  0  0
  3  4  2  0  0  0  0
  3 15  1  0  0  0  0
  5  6  1  0  0  0  0
  5 42  1  0  0  0  0
  5 43  1  0  0  0  0
  6  7  2  0  0  0  0
  6  8  1  0  0  0  0
  7  9  1  0  0  0  0
  7 44  1  0  0  0  0
  8 10  2  0  0  0  0
  8 11  1  0  0  0  0
  9 45  1  0  0  0  0
 10  9  1  0  0  0  0
 10 12  1  0  0  0  0
 11 13  2  0  0  0  0
 11 46  1  0  0  0  0
 12 14  2  0  0  0  0
 12 47  1  0  0  0  0
 13 14  1  0  0  0  0
 13 48  1  0  0  0  0
 14 49  1  0  0  0  0
 15 16  1  0  0  0  0
 15 50  1  0  0  0  0
 16 17  1  0  0  0  0
 16 51  1  0  0  0  0
 16 52  1  0  0  0  0
 17 18  2  0  0  0  0
 17 19  1  0  0  0  0
 19 53  1  0  0  0  0
 19 54  1  0  0  0  0
 20 21  1  0  0  0  0
 20 29  1  0  0  0  0
 20 55  1  1  0  0  0
 21 22  1  0  0  0  0
 21 26  1  0  0  0  0
 21 56  1  6  0  0  0
 22 23  1  0  0  0  0
 22 27  1  0  0  0  0
 22 57  1  1  0  0  0
 23 28  1  0  0  0  0
 23 58  1  6  0  0  0
 24 23  1  0  0  0  0
 24 25  1  0  0  0  0
 24 59  1  1  0  0  0
 25 30  1  0  0  0  0
 25 60  1  0  0  0  0
 25 61  1  0  0  0  0
 26 62  1  0  0  0  0
 27 63  1  0  0  0  0
 28 64  1  0  0  0  0
 29 24  1  0  0  0  0
 30 65  1  0  0  0  0
 31  1  1  0  0  0  0
 31 32  2  0  0  0  0
 33 31  1  0  0  0  0
 33 38  1  0  0  0  0
 34 33  2  0  0  0  0
 34 66  1  0  0  0  0
 35 34  1  0  0  0  0
 35 67  1  0  0  0  0
 36 35  2  0  0  0  0
 36 37  1  0  0  0  0
 36 39  1  0  0  0  0
 37 38  2  0  0  0  0
 37 68  1  0  0  0  0
 38 69  1  0  0  0  0
 39 20  1  0  0  0  0
M  END
