4lkt_ligand
 OpenBabel08222323353D

 53 52  0  0  0  0  0  0  0  0999 V2000
   31.7330   -7.3400   -6.5580 C   0  0  0  0  0  0  0  0  0  0  0  0
   33.1060   -7.0000   -6.0850 C   0  0  0  0  0  0  0  0  0  0  0  0
   33.0960   -5.6860   -5.3790 C   0  0  0  0  0  0  0  0  0  0  0  0
   33.7850   -5.8370   -4.0650 C   0  0  0  0  0  0  0  0  0  0  0  0
   34.8050   -4.7600   -3.9010 C   0  0  0  0  0  0  0  0  0  0  0  0
   35.2450   -4.7090   -2.4770 C   0  0  0  0  0  0  0  0  0  0  0  0
   36.6130   -5.2880   -2.3450 C   0  0  0  0  0  0  0  0  0  0  0  0
   36.6180   -6.3020   -1.2500 C   0  0  0  0  0  0  0  0  0  0  0  0
   38.0100   -6.7850   -1.0210 C   0  0  0  0  0  0  0  0  0  0  0  0
   38.2590   -8.1050   -0.7690 C   0  0  0  0  0  0  0  0  0  0  0  0
   37.4910   -8.8520    0.2710 C   0  0  0  0  0  0  0  0  0  0  0  0
   38.4490   -9.5310    1.1920 C   0  0  0  0  0  0  0  0  0  0  0  0
   38.0340  -10.4670    2.0990 C   0  0  0  0  0  0  0  0  0  0  0  0
   36.7360  -11.1880    1.9440 C   0  0  0  0  0  0  0  0  0  0  0  0
   36.9850  -12.6200    1.6000 C   0  0  0  0  0  0  0  0  0  0  0  0
   37.2180  -13.4370    2.8270 C   0  0  0  0  0  0  0  0  0  0  0  0
   36.9660  -14.8690    2.4980 C   0  0  0  0  0  0  0  0  0  0  0  0
   37.5650  -15.7350    3.5510 C   0  0  0  0  0  0  0  0  0  0  0  0
   30.7350   -6.7250   -6.1000 O   0  5  0  0  0  0  0  0  0  0  0  0
   31.5750   -8.2480   -7.4160 O   0  0  0  0  0  0  0  0  0  0  0  0
   33.7845   -6.9433   -6.9490 H   0  0  0  0  0  0  0  0  0  0  0  0
   33.4564   -7.7811   -5.3943 H   0  0  0  0  0  0  0  0  0  0  0  0
   32.0574   -5.3625   -5.2160 H   0  0  0  0  0  0  0  0  0  0  0  0
   33.6224   -4.9360   -5.9876 H   0  0  0  0  0  0  0  0  0  0  0  0
   34.2804   -6.8182   -4.0233 H   0  0  0  0  0  0  0  0  0  0  0  0
   33.0449   -5.7651   -3.2544 H   0  0  0  0  0  0  0  0  0  0  0  0
   34.3660   -3.7921   -4.1845 H   0  0  0  0  0  0  0  0  0  0  0  0
   35.6707   -4.9728   -4.5454 H   0  0  0  0  0  0  0  0  0  0  0  0
   34.5434   -5.2873   -1.8579 H   0  0  0  0  0  0  0  0  0  0  0  0
   35.2578   -3.6630   -2.1369 H   0  0  0  0  0  0  0  0  0  0  0  0
   37.3291   -4.4875   -2.1073 H   0  0  0  0  0  0  0  0  0  0  0  0
   36.9011   -5.7686   -3.2916 H   0  0  0  0  0  0  0  0  0  0  0  0
   35.9783   -7.1506   -1.5341 H   0  0  0  0  0  0  0  0  0  0  0  0
   36.2326   -5.8453   -0.3265 H   0  0  0  0  0  0  0  0  0  0  0  0
   38.4000   -6.2221   -0.1602 H   0  0  0  0  0  0  0  0  0  0  0  0
   38.5852   -6.5234   -1.9214 H   0  0  0  0  0  0  0  0  0  0  0  0
   39.3189   -8.1733   -0.4829 H   0  0  0  0  0  0  0  0  0  0  0  0
   38.1000   -8.6389   -1.7175 H   0  0  0  0  0  0  0  0  0  0  0  0
   36.8502   -9.6036   -0.2132 H   0  0  0  0  0  0  0  0  0  0  0  0
   36.8657   -8.1501    0.8422 H   0  0  0  0  0  0  0  0  0  0  0  0
   39.5061   -9.2746    1.1406 H   0  0  0  0  0  0  0  0  0  0  0  0
   38.6668  -10.6921    2.9563 H   0  0  0  0  0  0  0  0  0  0  0  0
   36.1512  -10.7167    1.1403 H   0  0  0  0  0  0  0  0  0  0  0  0
   36.1735  -11.1326    2.8877 H   0  0  0  0  0  0  0  0  0  0  0  0
   37.8717  -12.6845    0.9523 H   0  0  0  0  0  0  0  0  0  0  0  0
   36.1102  -13.0179    1.0648 H   0  0  0  0  0  0  0  0  0  0  0  0
   36.5322  -13.1134    3.6238 H   0  0  0  0  0  0  0  0  0  0  0  0
   38.2574  -13.3114    3.1644 H   0  0  0  0  0  0  0  0  0  0  0  0
   37.4212  -15.1070    1.5253 H   0  0  0  0  0  0  0  0  0  0  0  0
   35.8818  -15.0484    2.4492 H   0  0  0  0  0  0  0  0  0  0  0  0
   37.3783  -16.7912    3.3070 H   0  0  0  0  0  0  0  0  0  0  0  0
   37.1099  -15.4975    4.5238 H   0  0  0  0  0  0  0  0  0  0  0  0
   38.6492  -15.5561    3.5999 H   0  0  0  0  0  0  0  0  0  0  0  0
  1  2  1  0  0  0  0
  1 19  1  0  0  0  0
  1 20  2  0  0  0  0
  2  3  1  0  0  0  0
  2 21  1  0  0  0  0
  2 22  1  0  0  0  0
  3  4  1  0  0  0  0
  3 23  1  0  0  0  0
  3 24  1  0  0  0  0
  4  5  1  0  0  0  0
  4 25  1  0  0  0  0
  4 26  1  0  0  0  0
  5  6  1  0  0  0  0
  5 27  1  0  0  0  0
  5 28  1  0  0  0  0
  6  7  1  0  0  0  0
  6 29  1  0  0  0  0
  6 30  1  0  0  0  0
  7  8  1  0  0  0  0
  7 31  1  0  0  0  0
  7 32  1  0  0  0  0
  8  9  1  0  0  0  0
  8 33  1  0  0  0  0
  8 34  1  0  0  0  0
  9 10  1  0  0  0  0
  9 35  1  0  0  0  0
  9 36  1  0  0  0  0
 10 11  1  0  0  0  0
 10 37  1  0  0  0  0
 10 38  1  0  0  0  0
 11 12  1  0  0  0  0
 11 39  1  0  0  0  0
 11 40  1  0  0  0  0
 12 13  2  0  0  0  0
 12 41  1  0  0  0  0
 13 14  1  0  0  0  0
 13 42  1  0  0  0  0
 14 15  1  0  0  0  0
 14 43  1  0  0  0  0
 14 44  1  0  0  0  0
 15 16  1  0  0  0  0
 15 45  1  0  0  0  0
 15 46  1  0  0  0  0
 16 17  1  0  0  0  0
 16 47  1  0  0  0  0
 16 48  1  0  0  0  0
 17 18  1  0  0  0  0
 17 49  1  0  0  0  0
 17 50  1  0  0  0  0
 18 51  1  0  0  0  0
 18 52  1  0  0  0  0
 18 53  1  0  0  0  0
M  CHG  1  19  -1
M  END
