4lnf_ligand
 OpenBabel08222323353D

 20 19  0  0  1  0  0  0  0  0999 V2000
   17.0580   30.8560  -26.2610 N   0  3  0  0  0  0  0  0  0  0  0  0
   16.7050   32.0090  -27.0930 C   0  0  2  0  0  0  0  0  0  0  0  0
   16.1930   31.6160  -28.4700 C   0  0  0  0  0  0  0  0  0  0  0  0
   16.4080   32.3694  -29.4568 O   0  5  0  0  0  0  0  0  0  0  0  0
   17.8930   32.9590  -27.2370 C   0  0  0  0  0  0  0  0  0  0  0  0
   18.1240   33.8060  -26.0030 C   0  0  0  0  0  0  0  0  0  0  0  0
   19.4450   34.5370  -26.0410 C   0  0  0  0  0  0  0  0  0  0  0  0
   20.3310   34.2830  -25.2290 O   0  0  0  0  0  0  0  0  0  0  0  0
   19.5870   35.4530  -26.9880 N   0  0  0  0  0  0  0  0  0  0  0  0
   15.5556   30.5400  -28.6236 O   0  0  0  0  0  0  0  0  0  0  0  0
   17.3892   31.1772  -25.3648 H   0  0  0  0  0  0  0  0  0  0  0  0
   17.7827   30.3229  -26.7156 H   0  0  0  0  0  0  0  0  0  0  0  0
   16.2450   30.2746  -26.1301 H   0  0  0  0  0  0  0  0  0  0  0  0
   15.8965   32.5498  -26.5793 H   0  0  0  0  0  0  0  0  0  0  0  0
   17.7068   33.6268  -28.0910 H   0  0  0  0  0  0  0  0  0  0  0  0
   18.7977   32.3631  -27.4279 H   0  0  0  0  0  0  0  0  0  0  0  0
   18.1082   33.1522  -25.1186 H   0  0  0  0  0  0  0  0  0  0  0  0
   17.3137   34.5460  -25.9265 H   0  0  0  0  0  0  0  0  0  0  0  0
   20.4408   35.9685  -27.0610 H   0  0  0  0  0  0  0  0  0  0  0  0
   18.8404   35.6288  -27.6296 H   0  0  0  0  0  0  0  0  0  0  0  0
  1  2  1  0  0  0  0
  1 11  1  0  0  0  0
  1 12  1  0  0  0  0
  1 13  1  0  0  0  0
  2  3  1  0  0  0  0
  2  5  1  0  0  0  0
  2 14  1  1  0  0  0
  3  4  1  0  0  0  0
  3 10  2  0  0  0  0
  5  6  1  0  0  0  0
  5 15  1  0  0  0  0
  5 16  1  0  0  0  0
  6  7  1  0  0  0  0
  6 17  1  0  0  0  0
  6 18  1  0  0  0  0
  7  8  2  0  0  0  0
  7  9  1  0  0  0  0
  9 19  1  0  0  0  0
  9 20  1  0  0  0  0
M  CHG  2   1   1   4  -1
M  END
