4lno_ligand
 OpenBabel08222323353D

 20 19  0  0  1  0  0  0  0  0999 V2000
  -29.4320   30.3370   30.2690 N   0  3  0  0  0  0  0  0  0  0  0  0
  -29.1920   31.5660   29.5240 C   0  0  2  0  0  0  0  0  0  0  0  0
  -29.0750   31.2940   28.0330 C   0  0  0  0  0  0  0  0  0  0  0  0
  -30.0965   31.2899   27.2953 O   0  5  0  0  0  0  0  0  0  0  0  0
  -27.9140   32.2160   30.0070 C   0  0  0  0  0  0  0  0  0  0  0  0
  -27.5050   33.3830   29.2130 C   0  0  0  0  0  0  0  0  0  0  0  0
  -26.2340   33.9500   29.7330 C   0  0  0  0  0  0  0  0  0  0  0  0
  -26.1650   34.3510   30.8890 O   0  0  0  0  0  0  0  0  0  0  0  0
  -25.2080   33.9870   28.8920 N   0  0  0  0  0  0  0  0  0  0  0  0
  -27.9424   31.0699   27.5285 O   0  0  0  0  0  0  0  0  0  0  0  0
  -29.5048   30.5487   31.2518 H   0  0  0  0  0  0  0  0  0  0  0  0
  -28.6670   29.6981   30.1187 H   0  0  0  0  0  0  0  0  0  0  0  0
  -30.2903   29.9140   29.9519 H   0  0  0  0  0  0  0  0  0  0  0  0
  -30.0339   32.2528   29.6954 H   0  0  0  0  0  0  0  0  0  0  0  0
  -27.1078   31.4688   29.9657 H   0  0  0  0  0  0  0  0  0  0  0  0
  -28.0614   32.5393   31.0480 H   0  0  0  0  0  0  0  0  0  0  0  0
  -28.2915   34.1501   29.2663 H   0  0  0  0  0  0  0  0  0  0  0  0
  -27.3624   33.0761   28.1664 H   0  0  0  0  0  0  0  0  0  0  0  0
  -24.3293   34.3589   29.1913 H   0  0  0  0  0  0  0  0  0  0  0  0
  -25.3136   33.6430   27.9590 H   0  0  0  0  0  0  0  0  0  0  0  0
  1  2  1  0  0  0  0
  1 11  1  0  0  0  0
  1 12  1  0  0  0  0
  1 13  1  0  0  0  0
  2  3  1  0  0  0  0
  2  5  1  0  0  0  0
  2 14  1  1  0  0  0
  3  4  1  0  0  0  0
  3 10  2  0  0  0  0
  5  6  1  0  0  0  0
  5 15  1  0  0  0  0
  5 16  1  0  0  0  0
  6  7  1  0  0  0  0
  6 17  1  0  0  0  0
  6 18  1  0  0  0  0
  7  8  2  0  0  0  0
  7  9  1  0  0  0  0
  9 19  1  0  0  0  0
  9 20  1  0  0  0  0
M  CHG  2   1   1   4  -1
M  END
