4loj_ligand
 OpenBabel08222323353D

 68 74  0  0  1  0  0  0  0  0999 V2000
   37.5860   25.5850   24.8240 C   0  0  0  0  0  0  0  0  0  0  0  0
   40.4920   27.3070   24.2290 N   0  0  0  0  0  0  0  0  0  0  0  0
   39.6810   26.3840   24.3210 C   0  0  0  0  0  0  0  0  0  0  0  0
   38.4420   26.5770   24.7520 N   0  0  0  0  0  0  0  0  0  0  0  0
   37.9730   24.3880   24.4270 N   0  0  0  0  0  0  0  0  0  0  0  0
   39.2250   24.2260   24.0320 C   0  0  0  0  0  0  0  0  0  0  0  0
   40.0590   25.1760   23.9580 C   0  0  0  0  0  0  0  0  0  0  0  0
   41.1710   24.6660   23.4980 N   0  0  0  0  0  0  0  0  0  0  0  0
   41.0190   23.4400   23.2650 C   0  0  0  0  0  0  0  0  0  0  0  0
   39.8170   23.1670   23.6090 N   0  0  0  0  0  0  0  0  0  0  0  0
   39.1080   22.0290   23.6550 C   0  0  1  0  0  0  0  0  0  0  0  0
   38.1660   22.0110   22.6140 C   0  0  2  0  0  0  0  0  0  0  0  0
   36.9660   21.3800   23.1440 O   0  0  0  0  0  0  0  0  0  0  0  0
   38.9300   21.2320   21.6530 C   0  0  1  0  0  0  0  0  0  0  0  0
   39.4750   20.1040   22.5990 C   0  0  1  0  0  0  0  0  0  0  0  0
   40.9350   19.5430   22.2730 C   0  0  0  0  0  0  0  0  0  0  0  0
   41.8150   20.5420   21.9530 O   0  0  0  0  0  0  0  0  0  0  0  0
   43.1130   20.4610   21.0410 P   0  0  2  0  0  0  0  0  0  0  0  0
   43.8330   21.5980   21.0370 O   0  0  0  0  0  1  0  0  0  0  0  0
   42.6380   20.3170   19.6720 O   0  0  0  0  0  0  0  0  0  0  0  0
   41.7140   21.0970   18.9810 C   0  0  2  0  0  0  0  0  0  0  0  0
   40.9120   20.0590   18.2450 C   0  0  2  0  0  0  0  0  0  0  0  0
   41.5930   18.7310   17.8100 O   0  0  0  0  0  0  0  0  0  0  0  0
   40.3250   20.7940   17.2320 C   0  0  1  0  0  0  0  0  0  0  0  0
   39.0430   21.0230   17.9290 C   0  0  0  0  0  0  0  0  0  0  0  0
   39.0590   22.0190   18.8370 O   0  0  0  0  0  0  0  0  0  0  0  0
   37.6860   22.1290   19.7200 P   0  0  2  0  0  0  0  0  0  0  0  0
   38.0000   21.0000   20.8070 O   0  0  0  0  0  0  0  0  0  0  0  0
   36.7000   21.6420   19.1190 O   0  0  0  0  0  1  0  0  0  0  0  0
   37.5820   23.2410   20.1130 O   0  0  0  0  0  0  0  0  0  0  0  0
   41.0120   21.9900   16.9570 O   0  0  0  0  0  0  0  0  0  0  0  0
   42.0250   22.1830   17.7320 C   0  0  1  0  0  0  0  0  0  0  0  0
   41.9910   23.6940   18.0290 N   0  0  0  0  0  0  0  0  0  0  0  0
   41.0010   24.4100   18.5220 C   0  0  0  0  0  0  0  0  0  0  0  0
   41.3770   25.6280   18.7240 N   0  0  0  0  0  0  0  0  0  0  0  0
   42.9660   24.5320   17.9510 C   0  0  0  0  0  0  0  0  0  0  0  0
   42.6390   25.7100   18.3520 C   0  0  0  0  0  0  0  0  0  0  0  0
   43.5290   26.6480   18.3500 C   0  0  0  0  0  0  0  0  0  0  0  0
   44.8810   26.4410   17.9200 N   0  0  0  0  0  0  0  0  0  0  0  0
   45.0980   25.1820   17.5000 C   0  0  1  0  0  3  0  0  0  0  0  0
   46.2140   24.6100   17.0370 N   0  0  0  0  0  0  0  0  0  0  0  0
   44.2030   24.3160   17.5570 N   0  0  0  0  0  0  0  0  0  0  0  0
   43.2600   27.7210   18.7310 O   0  0  0  0  0  0  0  0  0  0  0  0
   43.8990   19.2870   21.2820 O   0  0  0  0  0  0  0  0  0  0  0  0
   39.7030   20.7700   23.6980 O   0  0  0  0  0  0  0  0  0  0  0  0
   36.5826   25.7457   25.2015 H   0  0  0  0  0  0  0  0  0  0  0  0
   41.4469   27.1217   23.8902 H   0  0  0  0  0  0  0  0  0  0  0  0
   40.2151   28.2639   24.4909 H   0  0  0  0  0  0  0  0  0  0  0  0
   41.7575   22.7525   22.8552 H   0  0  0  0  0  0  0  0  0  0  0  0
   38.5472   22.1015   24.5985 H   0  0  0  0  0  0  0  0  0  0  0  0
   37.9231   23.0098   22.2224 H   0  0  0  0  0  0  0  0  0  0  0  0
   36.3007   21.3483   22.4666 H   0  0  0  0  0  0  0  0  0  0  0  0
   39.7639   21.7653   21.1732 H   0  0  0  0  0  0  0  0  0  0  0  0
   38.7467   19.2863   22.7038 H   0  0  0  0  0  0  0  0  0  0  0  0
   40.8654   18.8473   21.4238 H   0  0  0  0  0  0  0  0  0  0  0  0
   41.3136   19.0073   23.1559 H   0  0  0  0  0  0  0  0  0  0  0  0
   41.1197   21.6322   19.7362 H   0  0  0  0  0  0  0  0  0  0  0  0
   40.1100   19.7394   18.9266 H   0  0  0  0  0  0  0  0  0  0  0  0
   41.9164   18.2757   18.5785 H   0  0  0  0  0  0  0  0  0  0  0  0
   40.2068   20.2172   16.3029 H   0  0  0  0  0  0  0  0  0  0  0  0
   38.7652   20.0933   18.4471 H   0  0  0  0  0  0  0  0  0  0  0  0
   38.2813   21.2629   17.1726 H   0  0  0  0  0  0  0  0  0  0  0  0
   42.9822   21.9305   17.2525 H   0  0  0  0  0  0  0  0  0  0  0  0
   40.0031   24.0269   18.7303 H   0  0  0  0  0  0  0  0  0  0  0  0
   45.5835   27.1526   17.9311 H   0  0  0  0  0  0  0  0  0  0  0  0
   46.2060   23.6196   16.7544 H   0  0  0  0  0  0  0  0  0  0  0  0
   47.0819   25.1597   16.9629 H   0  0  0  0  0  0  0  0  0  0  0  0
   44.4509   23.3572   17.2738 H   0  0  0  0  0  0  0  0  0  0  0  0
  1  5  1  0  0  0  0
  1 46  1  0  0  0  0
  2 47  1  0  0  0  0
  2 48  1  0  0  0  0
  3  2  1  0  0  0  0
  3  4  1  0  0  0  0
  3  7  2  0  0  0  0
  4  1  2  0  0  0  0
  5  6  2  0  0  0  0
  6  7  1  0  0  0  0
  6 10  1  0  0  0  0
  7  8  1  0  0  0  0
  8  9  2  0  0  0  0
  9 10  1  0  0  0  0
  9 49  1  0  0  0  0
 10 11  1  0  0  0  0
 11 12  1  0  0  0  0
 11 45  1  0  0  0  0
 11 50  1  1  0  0  0
 12 13  1  0  0  0  0
 12 14  1  0  0  0  0
 12 51  1  6  0  0  0
 13 52  1  0  0  0  0
 14 15  1  0  0  0  0
 14 28  1  0  0  0  0
 14 53  1  6  0  0  0
 15 16  1  0  0  0  0
 15 45  1  0  0  0  0
 15 54  1  1  0  0  0
 16 17  1  0  0  0  0
 16 55  1  0  0  0  0
 16 56  1  0  0  0  0
 17 18  1  0  0  0  0
 18 19  1  1  0  0  0
 18 20  1  0  0  0  0
 18 44  2  0  0  0  0
 20 21  1  0  0  0  0
 21 22  1  0  0  0  0
 21 32  1  0  0  0  0
 21 57  1  1  0  0  0
 22 23  1  0  0  0  0
 22 24  1  0  0  0  0
 22 58  1  1  0  0  0
 23 59  1  0  0  0  0
 24 25  1  0  0  0  0
 24 31  1  0  0  0  0
 24 60  1  6  0  0  0
 25 26  1  0  0  0  0
 25 61  1  0  0  0  0
 25 62  1  0  0  0  0
 26 27  1  0  0  0  0
 27 28  1  0  0  0  0
 27 29  1  6  0  0  0
 27 30  2  0  0  0  0
 31 32  1  0  0  0  0
 32 33  1  0  0  0  0
 32 63  1  6  0  0  0
 33 34  1  0  0  0  0
 33 36  1  0  0  0  0
 34 35  2  0  0  0  0
 34 64  1  0  0  0  0
 35 37  1  0  0  0  0
 36 37  2  0  0  0  0
 36 42  1  0  0  0  0
 37 38  1  0  0  0  0
 38 39  1  0  0  0  0
 38 43  2  0  0  0  0
 39 40  1  0  0  0  0
 39 65  1  0  0  0  0
 40 41  1  1  0  0  0
 40 42  1  0  0  0  0
 41 66  1  0  0  0  0
 41 67  1  0  0  0  0
 42 68  1  0  0  0  0
M  END
