4lp6_ligand
 OpenBabel08222323353D

149158  0  0  0  0  0  0  0  0999 V2000
   -1.5540   -0.2230   61.2280 C   0  0  0  0  0  0  0  0  0  0  0  0
   -2.1090   -1.6950   61.2420 C   0  0  0  0  0  0  0  0  0  0  0  0
   -3.2010   -1.6910   62.2150 O   0  0  0  0  0  0  0  0  0  0  0  0
   -3.8450   -2.8950   62.4660 C   0  0  0  0  0  0  0  0  0  0  0  0
   -3.4180   -4.1490   62.1640 C   0  0  0  0  0  0  0  0  0  0  0  0
   -4.1600   -5.2630   62.5220 C   0  0  0  0  0  0  0  0  0  0  0  0
   -3.6030   -6.4700   62.1510 C   0  0  0  0  0  0  0  0  0  0  0  0
   -2.5450   -6.4860   61.4710 O   0  5  0  0  0  0  0  0  0  0  0  0
   -4.1810   -7.5600   62.3790 O   0  0  0  0  0  0  0  0  0  0  0  0
   -5.3590   -5.1570   63.1740 N   0  0  0  0  0  0  0  0  0  0  0  0
   -5.7970   -3.9060   63.4810 C   0  0  0  0  0  0  0  0  0  0  0  0
   -5.0340   -2.7760   63.1070 C   0  0  0  0  0  0  0  0  0  0  0  0
   -5.4290   -1.4580   63.3800 C   0  0  0  0  0  0  0  0  0  0  0  0
   -6.6490   -1.2850   63.9940 C   0  0  0  0  0  0  0  0  0  0  0  0
   -7.4370   -2.3730   64.3750 C   0  0  0  0  0  0  0  0  0  0  0  0
   -7.0510   -3.6870   64.0990 C   0  0  0  0  0  0  0  0  0  0  0  0
   -7.6870   -4.7940   64.5470 N   0  0  0  0  0  0  0  0  0  0  0  0
   -8.7640   -4.8330   65.3410 C   0  0  0  0  0  0  0  0  0  0  0  0
   -9.6390   -4.0230   65.3590 O   0  0  0  0  0  0  0  0  0  0  0  0
   -8.9920   -6.0720   65.8990 C   0  0  0  0  0  0  0  0  0  0  0  0
  -10.2150   -6.4610   66.4550 C   0  0  0  0  0  0  0  0  0  0  0  0
  -10.2930   -7.7780   66.9710 C   0  0  0  0  0  0  0  0  0  0  0  0
  -11.4420   -8.2940   67.5000 O   0  0  0  0  0  0  0  0  0  0  0  0
   -7.9280   -6.9150   65.9030 N   0  0  0  0  0  0  0  0  0  0  0  0
   -7.9870   -8.1610   66.4060 C   0  0  0  0  0  0  0  0  0  0  0  0
   -9.1830   -8.6310   66.9500 C   0  0  0  0  0  0  0  0  0  0  0  0
   -9.2310   -9.9380   67.4690 C   0  0  0  0  0  0  0  0  0  0  0  0
   -8.0950  -10.7370   67.4250 C   0  0  0  0  0  0  0  0  0  0  0  0
   -6.8920  -10.2470   66.8770 C   0  0  0  0  0  0  0  0  0  0  0  0
   -6.8270   -8.9460   66.3510 C   0  0  0  0  0  0  0  0  0  0  0  0
   -5.7530   -8.2810   65.8260 N   0  0  0  0  0  0  0  0  0  0  0  0
   -4.4670   -8.6470   65.9910 C   0  0  0  0  0  0  0  0  0  0  0  0
   -4.1480   -9.7690   66.2960 O   0  0  0  0  0  0  0  0  0  0  0  0
   -3.4670   -7.6850   65.6130 C   0  0  0  0  0  0  0  0  0  0  0  0
   -2.2600   -8.0340   64.9560 C   0  0  0  0  0  0  0  0  0  0  0  0
   -1.3110   -7.0550   64.5970 C   0  0  0  0  0  0  0  0  0  0  0  0
   -0.0540   -7.2900   63.9210 O   0  0  0  0  0  0  0  0  0  0  0  0
   -3.7000   -6.3760   65.9260 N   0  0  0  0  0  0  0  0  0  0  0  0
   -2.8200   -5.4120   65.6050 C   0  0  0  0  0  0  0  0  0  0  0  0
   -1.6320   -5.7400   64.9340 C   0  0  0  0  0  0  0  0  0  0  0  0
   -0.7490   -4.7370   64.6090 C   0  0  0  0  0  0  0  0  0  0  0  0
   -1.0480   -3.4370   64.9860 C   0  0  0  0  0  0  0  0  0  0  0  0
   -2.2540   -3.0800   65.6190 C   0  0  0  0  0  0  0  0  0  0  0  0
   -3.1510   -4.0810   65.9300 C   0  0  0  0  0  0  0  0  0  0  0  0
   -4.3510   -3.9220   66.5560 N   0  0  0  0  0  0  0  0  0  0  0  0
   -4.9760   -2.7590   66.8240 C   0  0  0  0  0  0  0  0  0  0  0  0
   -4.6480   -1.6210   66.4940 O   0  0  0  0  0  0  0  0  0  0  0  0
   -6.2070   -2.9210   67.4360 C   0  0  0  0  0  0  0  0  0  0  0  0
   -7.1300   -1.9050   67.4550 C   0  0  0  0  0  0  0  0  0  0  0  0
   -8.3720   -2.1070   68.0250 C   0  0  0  0  0  0  0  0  0  0  0  0
   -9.3920   -1.2210   68.0760 O   0  0  0  0  0  0  0  0  0  0  0  0
   -9.2300    0.1570   67.7200 C   0  0  0  0  0  0  0  0  0  0  0  0
   -9.7000    0.4490   66.2830 C   0  0  0  0  0  0  0  0  0  0  0  0
   -9.9250    1.9530   66.1920 C   0  0  0  0  0  0  0  0  0  0  0  0
  -11.0140   -0.2270   65.8720 C   0  0  0  0  0  0  0  0  0  0  0  0
   -6.5320   -4.0980   67.9660 N   0  0  0  0  0  0  0  0  0  0  0  0
   -7.7260   -4.2920   68.5480 C   0  0  0  0  0  0  0  0  0  0  0  0
   -8.6730   -3.3030   68.5780 C   0  0  0  0  0  0  0  0  0  0  0  0
   -9.9160   -3.5050   69.1900 C   0  0  0  0  0  0  0  0  0  0  0  0
  -10.1740   -4.7680   69.7500 C   0  0  0  0  0  0  0  0  0  0  0  0
   -9.1990   -5.7610   69.7200 C   0  0  0  0  0  0  0  0  0  0  0  0
   -7.9650   -5.5390   69.1200 C   0  0  0  0  0  0  0  0  0  0  0  0
   -6.9120   -6.4030   69.0000 N   0  0  0  0  0  0  0  0  0  0  0  0
   -6.8860   -7.6360   69.5840 C   0  0  0  0  0  0  0  0  0  0  0  0
   -7.8520   -8.1240   70.1840 O   0  0  0  0  0  0  0  0  0  0  0  0
   -5.7600   -8.3640   69.4400 N   0  0  0  0  0  0  0  0  0  0  0  0
   -5.7020   -9.7440   69.9900 C   0  0  0  0  0  0  0  0  0  0  0  0
   -4.3530  -10.0990   70.6390 C   0  0  0  0  0  0  0  0  0  0  0  0
   -4.3400   -9.6810   72.1210 C   0  0  0  0  0  0  0  0  0  0  0  0
   -3.2340  -10.4220   72.8580 C   0  0  0  0  0  0  0  0  0  0  0  0
   -2.0170   -9.6610   72.8950 O   0  0  0  0  0  0  0  0  0  0  0  0
   -1.6510   -8.9740   74.0150 C   0  0  0  0  0  0  0  0  0  0  0  0
   -0.4070   -8.3930   73.9710 C   0  0  0  0  0  0  0  0  0  0  0  0
   -2.4380   -8.8010   75.1600 C   0  0  0  0  0  0  0  0  0  0  0  0
   -1.9540   -8.0620   76.2450 C   0  0  0  0  0  0  0  0  0  0  0  0
   -0.6870   -7.4600   76.1560 C   0  0  0  0  0  0  0  0  0  0  0  0
    0.0780   -7.6020   75.0170 C   0  0  0  0  0  0  0  0  0  0  0  0
    1.3820   -6.9690   74.8650 C   0  0  0  0  0  0  0  0  0  0  0  0
    2.0860   -6.7040   76.1370 N   0  0  0  0  0  0  0  0  0  0  0  0
    2.7120   -7.7020   76.7930 C   0  0  0  0  0  0  0  0  0  0  0  0
    2.7140   -8.8620   76.3270 O   0  0  0  0  0  0  0  0  0  0  0  0
    3.3760   -7.3890   78.0240 C   0  0  0  0  0  0  0  0  0  0  0  0
    3.4120   -6.0660   78.6030 C   0  0  0  0  0  0  0  0  0  0  0  0
    4.0950   -5.8440   79.8050 C   0  0  0  0  0  0  0  0  0  0  0  0
    4.8090   -6.8510   80.4110 C   0  0  0  0  0  0  0  0  0  0  0  0
    5.6850   -6.5460   81.9330 S   0  0  0  0  0  0  0  0  0  0  0  0
    4.5010   -6.4130   82.8380 O   0  0  0  0  0  0  0  0  0  0  0  0
    6.6690   -7.6680   82.0650 O   0  0  0  0  0  0  0  0  0  0  0  0
    6.3770   -5.1230   81.9760 N   0  0  0  0  0  0  0  0  0  0  0  0
    4.7970   -8.1450   79.8570 C   0  0  0  0  0  0  0  0  0  0  0  0
    4.1040   -8.3940   78.6760 C   0  0  0  0  0  0  0  0  0  0  0  0
   -0.7225   -0.1515   60.5114 H   0  0  0  0  0  0  0  0  0  0  0  0
   -1.1956    0.0433   62.2333 H   0  0  0  0  0  0  0  0  0  0  0  0
   -2.3558    0.4684   60.9294 H   0  0  0  0  0  0  0  0  0  0  0  0
   -1.3224   -2.3997   61.5497 H   0  0  0  0  0  0  0  0  0  0  0  0
   -2.4826   -1.9746   60.2459 H   0  0  0  0  0  0  0  0  0  0  0  0
   -2.4814   -4.2801   61.6342 H   0  0  0  0  0  0  0  0  0  0  0  0
   -4.8016   -0.6134   63.1191 H   0  0  0  0  0  0  0  0  0  0  0  0
   -7.0065   -0.2799   64.1863 H   0  0  0  0  0  0  0  0  0  0  0  0
   -8.3700   -2.1939   64.8971 H   0  0  0  0  0  0  0  0  0  0  0  0
   -7.3137   -5.6745   64.2546 H   0  0  0  0  0  0  0  0  0  0  0  0
  -11.0630   -5.7867   66.4894 H   0  0  0  0  0  0  0  0  0  0  0  0
  -11.2843   -9.1856   67.7878 H   0  0  0  0  0  0  0  0  0  0  0  0
  -10.1492  -10.3195   67.9008 H   0  0  0  0  0  0  0  0  0  0  0  0
   -8.1342  -11.7473   67.8160 H   0  0  0  0  0  0  0  0  0  0  0  0
   -6.0111  -10.8785   66.8614 H   0  0  0  0  0  0  0  0  0  0  0  0
   -5.9358   -7.4635   65.2799 H   0  0  0  0  0  0  0  0  0  0  0  0
   -2.0628   -9.0746   64.7250 H   0  0  0  0  0  0  0  0  0  0  0  0
    0.3973   -6.4632   63.7976 H   0  0  0  0  0  0  0  0  0  0  0  0
    0.1638   -4.9589   64.0681 H   0  0  0  0  0  0  0  0  0  0  0  0
   -0.3200   -2.6596   64.7842 H   0  0  0  0  0  0  0  0  0  0  0  0
   -2.4721   -2.0449   65.8559 H   0  0  0  0  0  0  0  0  0  0  0  0
   -4.8172   -4.7573   66.8474 H   0  0  0  0  0  0  0  0  0  0  0  0
   -6.8837   -0.9423   67.0219 H   0  0  0  0  0  0  0  0  0  0  0  0
   -8.1656    0.4213   67.8045 H   0  0  0  0  0  0  0  0  0  0  0  0
   -9.8173    0.7736   68.4163 H   0  0  0  0  0  0  0  0  0  0  0  0
   -8.9105    0.1367   65.5837 H   0  0  0  0  0  0  0  0  0  0  0  0
  -10.2636    2.2124   65.1781 H   0  0  0  0  0  0  0  0  0  0  0  0
   -8.9835    2.4785   66.4097 H   0  0  0  0  0  0  0  0  0  0  0  0
  -10.6904    2.2541   66.9224 H   0  0  0  0  0  0  0  0  0  0  0  0
  -10.8961   -1.3194   65.9236 H   0  0  0  0  0  0  0  0  0  0  0  0
  -11.2709    0.0659   64.8433 H   0  0  0  0  0  0  0  0  0  0  0  0
  -11.8173    0.0876   66.5544 H   0  0  0  0  0  0  0  0  0  0  0  0
  -10.6552   -2.7132   69.2306 H   0  0  0  0  0  0  0  0  0  0  0  0
  -11.1360   -4.9696   70.2071 H   0  0  0  0  0  0  0  0  0  0  0  0
   -9.4057   -6.7242   70.1724 H   0  0  0  0  0  0  0  0  0  0  0  0
   -6.1220   -6.1172   68.4575 H   0  0  0  0  0  0  0  0  0  0  0  0
   -4.9686   -7.9778   68.9660 H   0  0  0  0  0  0  0  0  0  0  0  0
   -5.8888  -10.4523   69.1694 H   0  0  0  0  0  0  0  0  0  0  0  0
   -6.4902   -9.8475   70.7503 H   0  0  0  0  0  0  0  0  0  0  0  0
   -3.5462   -9.5730   70.1076 H   0  0  0  0  0  0  0  0  0  0  0  0
   -4.1918  -11.1848   70.5679 H   0  0  0  0  0  0  0  0  0  0  0  0
   -5.3103   -9.9260   72.5777 H   0  0  0  0  0  0  0  0  0  0  0  0
   -4.1639   -8.5976   72.1930 H   0  0  0  0  0  0  0  0  0  0  0  0
   -3.0420  -11.3764   72.3459 H   0  0  0  0  0  0  0  0  0  0  0  0
   -3.5627  -10.6187   73.8891 H   0  0  0  0  0  0  0  0  0  0  0  0
    0.2173   -8.5525   73.0993 H   0  0  0  0  0  0  0  0  0  0  0  0
   -3.4273   -9.2418   75.2061 H   0  0  0  0  0  0  0  0  0  0  0  0
   -2.5496   -7.9549   77.1444 H   0  0  0  0  0  0  0  0  0  0  0  0
   -0.3080   -6.8794   76.9892 H   0  0  0  0  0  0  0  0  0  0  0  0
    1.2401   -6.0103   74.3446 H   0  0  0  0  0  0  0  0  0  0  0  0
    2.0149   -7.6284   74.2529 H   0  0  0  0  0  0  0  0  0  0  0  0
    2.0982   -5.7779   76.5140 H   0  0  0  0  0  0  0  0  0  0  0  0
    2.9095   -5.2439   78.1062 H   0  0  0  0  0  0  0  0  0  0  0  0
    4.0604   -4.8631   80.2650 H   0  0  0  0  0  0  0  0  0  0  0  0
    6.8970   -4.8441   82.7834 H   0  0  0  0  0  0  0  0  0  0  0  0
    6.2942   -4.5030   81.1958 H   0  0  0  0  0  0  0  0  0  0  0  0
    5.3289   -8.9497   80.3515 H   0  0  0  0  0  0  0  0  0  0  0  0
    4.1278   -9.3903   78.2495 H   0  0  0  0  0  0  0  0  0  0  0  0
  1  2  1  0  0  0  0
  1 92  1  0  0  0  0
  1 93  1  0  0  0  0
  1 94  1  0  0  0  0
  2  3  1  0  0  0  0
  2 95  1  0  0  0  0
  2 96  1  0  0  0  0
  3  4  1  0  0  0  0
  4  5  2  0  0  0  0
  4 12  1  0  0  0  0
  5  6  1  0  0  0  0
  5 97  1  0  0  0  0
  6  7  1  0  0  0  0
  6 10  2  0  0  0  0
  7  8  1  0  0  0  0
  7  9  2  0  0  0  0
 10 11  1  0  0  0  0
 11 12  2  0  0  0  0
 11 16  1  0  0  0  0
 12 13  1  0  0  0  0
 13 14  2  0  0  0  0
 13 98  1  0  0  0  0
 14 15  1  0  0  0  0
 14 99  1  0  0  0  0
 15 16  2  0  0  0  0
 15100  1  0  0  0  0
 16 17  1  0  0  0  0
 17 18  1  0  0  0  0
 17101  1  0  0  0  0
 18 19  2  0  0  0  0
 18 20  1  0  0  0  0
 20 21  2  0  0  0  0
 20 24  1  0  0  0  0
 21 22  1  0  0  0  0
 21102  1  0  0  0  0
 22 23  1  0  0  0  0
 22 26  2  0  0  0  0
 23103  1  0  0  0  0
 24 25  2  0  0  0  0
 25 26  1  0  0  0  0
 25 30  1  0  0  0  0
 26 27  1  0  0  0  0
 27 28  2  0  0  0  0
 27104  1  0  0  0  0
 28 29  1  0  0  0  0
 28105  1  0  0  0  0
 29 30  2  0  0  0  0
 29106  1  0  0  0  0
 30 31  1  0  0  0  0
 31 32  1  0  0  0  0
 31107  1  0  0  0  0
 32 33  2  0  0  0  0
 32 34  1  0  0  0  0
 34 35  2  0  0  0  0
 34 38  1  0  0  0  0
 35 36  1  0  0  0  0
 35108  1  0  0  0  0
 36 37  1  0  0  0  0
 36 40  2  0  0  0  0
 37109  1  0  0  0  0
 38 39  2  0  0  0  0
 39 40  1  0  0  0  0
 39 44  1  0  0  0  0
 40 41  1  0  0  0  0
 41 42  2  0  0  0  0
 41110  1  0  0  0  0
 42 43  1  0  0  0  0
 42111  1  0  0  0  0
 43 44  2  0  0  0  0
 43112  1  0  0  0  0
 44 45  1  0  0  0  0
 45 46  1  0  0  0  0
 45113  1  0  0  0  0
 46 47  2  0  0  0  0
 46 48  1  0  0  0  0
 48 49  2  0  0  0  0
 48 56  1  0  0  0  0
 49 50  1  0  0  0  0
 49114  1  0  0  0  0
 50 51  1  0  0  0  0
 50 58  2  0  0  0  0
 51 52  1  0  0  0  0
 52 53  1  0  0  0  0
 52115  1  0  0  0  0
 52116  1  0  0  0  0
 53 54  1  0  0  0  0
 53 55  1  0  0  0  0
 53117  1  0  0  0  0
 54118  1  0  0  0  0
 54119  1  0  0  0  0
 54120  1  0  0  0  0
 55121  1  0  0  0  0
 55122  1  0  0  0  0
 55123  1  0  0  0  0
 56 57  2  0  0  0  0
 57 58  1  0  0  0  0
 57 62  1  0  0  0  0
 58 59  1  0  0  0  0
 59 60  2  0  0  0  0
 59124  1  0  0  0  0
 60 61  1  0  0  0  0
 60125  1  0  0  0  0
 61 62  2  0  0  0  0
 61126  1  0  0  0  0
 62 63  1  0  0  0  0
 63 64  1  0  0  0  0
 63127  1  0  0  0  0
 64 65  2  0  0  0  0
 64 66  1  0  0  0  0
 66 67  1  0  0  0  0
 66128  1  0  0  0  0
 67 68  1  0  0  0  0
 67129  1  0  0  0  0
 67130  1  0  0  0  0
 68 69  1  0  0  0  0
 68131  1  0  0  0  0
 68132  1  0  0  0  0
 69 70  1  0  0  0  0
 69133  1  0  0  0  0
 69134  1  0  0  0  0
 70 71  1  0  0  0  0
 70135  1  0  0  0  0
 70136  1  0  0  0  0
 71 72  1  0  0  0  0
 72 73  2  0  0  0  0
 72 74  1  0  0  0  0
 73 77  1  0  0  0  0
 73137  1  0  0  0  0
 74 75  2  0  0  0  0
 74138  1  0  0  0  0
 75 76  1  0  0  0  0
 75139  1  0  0  0  0
 76 77  2  0  0  0  0
 76140  1  0  0  0  0
 77 78  1  0  0  0  0
 78 79  1  0  0  0  0
 78141  1  0  0  0  0
 78142  1  0  0  0  0
 79 80  1  0  0  0  0
 79143  1  0  0  0  0
 80 81  2  0  0  0  0
 80 82  1  0  0  0  0
 82 83  2  0  0  0  0
 82 91  1  0  0  0  0
 83 84  1  0  0  0  0
 83144  1  0  0  0  0
 84 85  2  0  0  0  0
 84145  1  0  0  0  0
 85 86  1  0  0  0  0
 85 90  1  0  0  0  0
 86 87  2  0  0  0  0
 86 88  2  0  0  0  0
 86 89  1  0  0  0  0
 89146  1  0  0  0  0
 89147  1  0  0  0  0
 90 91  2  0  0  0  0
 90148  1  0  0  0  0
 91149  1  0  0  0  0
M  CHG  1   8  -1
M  END
