4lpf_ligand
 OpenBabel08222323353D

 10 10  0  0  0  0  0  0  0  0999 V2000
  -18.3020   -7.7910   39.6310 N   0  0  0  0  0  0  0  0  0  0  0  0
  -19.6900   -8.0090   39.7300 N   0  0  0  0  0  0  0  0  0  0  0  0
  -20.1880   -7.1180   38.8660 C   0  0  0  0  0  0  0  0  0  0  0  0
  -19.2730   -6.3640   38.2360 N   0  0  0  0  0  0  0  0  0  0  0  0
  -18.0850   -6.7940   38.7300 C   0  0  0  0  0  0  0  0  0  0  0  0
  -21.5170   -6.9950   38.6450 N   0  0  0  0  0  0  0  0  0  0  0  0
  -20.1951   -8.6854   40.3202 H   0  0  0  0  0  0  0  0  0  0  0  0
  -17.1085   -6.4021   38.4491 H   0  0  0  0  0  0  0  0  0  0  0  0
  -21.8647   -6.2973   37.9718 H   0  0  0  0  0  0  0  0  0  0  0  0
  -22.1811   -7.5991   39.1499 H   0  0  0  0  0  0  0  0  0  0  0  0
  1  2  1  0  0  0  0
  1  5  2  0  0  0  0
  2  3  1  0  0  0  0
  2  7  1  0  0  0  0
  3  4  2  0  0  0  0
  3  6  1  0  0  0  0
  4  5  1  0  0  0  0
  5  8  1  0  0  0  0
  6  9  1  0  0  0  0
  6 10  1  0  0  0  0
M  END
