4lpg_ligand
 OpenBabel08222323353D

 37 39  0  0  0  0  0  0  0  0999 V2000
    9.3360   70.9370   25.5140 O   0  0  0  0  0  1  0  0  0  0  0  0
    8.8920   71.2850   26.9150 P   0  0  0  0  0  0  0  0  0  0  0  0
    9.7840   70.6020   28.1670 O   0  0  0  0  0  1  0  0  0  0  0  0
    8.6310   72.7230   27.2390 O   0  0  0  0  0  0  0  0  0  0  0  0
    7.2290   70.5380   26.8750 C   0  0  0  0  0  0  0  0  0  0  0  0
    6.8850   70.0590   25.0560 P   0  0  0  0  0  0  0  0  0  0  0  0
    7.5360   71.2930   24.4470 O   0  0  0  0  0  1  0  0  0  0  0  0
    5.2900   69.9040   24.7590 O   0  0  0  0  0  1  0  0  0  0  0  0
    7.4300   68.6950   24.7740 O   0  0  0  0  0  0  0  0  0  0  0  0
    6.3090   71.6080   27.3220 N   0  0  0  0  0  0  0  0  0  0  0  0
    5.1570   71.2930   27.8830 C   0  0  0  0  0  0  0  0  0  0  0  0
    4.9310   69.9880   28.1490 N   0  0  0  0  0  0  0  0  0  0  0  0
    3.7340   69.6200   28.7360 C   0  0  0  0  0  0  0  0  0  0  0  0
    2.8440   70.6450   29.0360 N   0  0  0  0  0  0  0  0  0  0  0  0
    3.1510   71.9310   28.7660 C   0  0  0  0  0  0  0  0  0  0  0  0
    2.2840   73.2620   29.0260 S   0  0  0  0  0  0  0  0  0  0  0  0
    4.3080   72.3020   28.1790 C   0  0  0  0  0  0  0  0  0  0  0  0
    4.4310   73.6660   27.9820 C   0  0  0  0  0  0  0  0  0  0  0  0
    3.3760   74.4060   28.3960 C   0  0  0  0  0  0  0  0  0  0  0  0
    3.2120   75.7780   28.3250 C   0  0  0  0  0  0  0  0  0  0  0  0
    4.2890   76.6900   28.3210 C   0  0  0  0  0  0  0  0  0  0  0  0
    4.1180   78.0720   28.2160 C   0  0  0  0  0  0  0  0  0  0  0  0
    2.8510   78.6080   28.1260 C   0  0  0  0  0  0  0  0  0  0  0  0
    2.6690   79.9960   28.0420 C   0  0  0  0  0  0  0  0  0  0  0  0
    1.7680   77.7340   28.1130 C   0  0  0  0  0  0  0  0  0  0  0  0
    1.9480   76.3470   28.2130 C   0  0  0  0  0  0  0  0  0  0  0  0
    7.1587   69.6573   27.5303 H   0  0  0  0  0  0  0  0  0  0  0  0
    6.5677   72.5969   27.1953 H   0  0  0  0  0  0  0  0  0  0  0  0
    3.5012   68.5834   28.9515 H   0  0  0  0  0  0  0  0  0  0  0  0
    5.3137   74.1123   27.5264 H   0  0  0  0  0  0  0  0  0  0  0  0
    5.2968   76.2992   28.4033 H   0  0  0  0  0  0  0  0  0  0  0  0
    4.9834   78.7247   28.2052 H   0  0  0  0  0  0  0  0  0  0  0  0
    1.5943   80.2216   27.9781 H   0  0  0  0  0  0  0  0  0  0  0  0
    3.1780   80.3790   27.1452 H   0  0  0  0  0  0  0  0  0  0  0  0
    3.0918   80.4761   28.9368 H   0  0  0  0  0  0  0  0  0  0  0  0
    0.7644   78.1338   28.0237 H   0  0  0  0  0  0  0  0  0  0  0  0
    1.0780   75.7005   28.2027 H   0  0  0  0  0  0  0  0  0  0  0  0
  1  2  1  0  0  0  0
  2  3  1  0  0  0  0
  2  4  2  0  0  0  0
  2  5  1  0  0  0  0
  5  6  1  0  0  0  0
  5 10  1  0  0  0  0
  5 27  1  0  0  0  0
  6  7  1  0  0  0  0
  6  8  1  0  0  0  0
  6  9  2  0  0  0  0
 10 11  1  0  0  0  0
 10 28  1  0  0  0  0
 11 12  2  0  0  0  0
 11 17  1  0  0  0  0
 12 13  1  0  0  0  0
 13 14  2  0  0  0  0
 13 29  1  0  0  0  0
 14 15  1  0  0  0  0
 15 16  1  0  0  0  0
 15 17  2  0  0  0  0
 16 19  1  0  0  0  0
 17 18  1  0  0  0  0
 18 19  2  0  0  0  0
 18 30  1  0  0  0  0
 19 20  1  0  0  0  0
 20 21  2  0  0  0  0
 20 26  1  0  0  0  0
 21 22  1  0  0  0  0
 21 31  1  0  0  0  0
 22 23  2  0  0  0  0
 22 32  1  0  0  0  0
 23 24  1  0  0  0  0
 23 25  1  0  0  0  0
 24 33  1  0  0  0  0
 24 34  1  0  0  0  0
 24 35  1  0  0  0  0
 25 26  2  0  0  0  0
 25 36  1  0  0  0  0
 26 37  1  0  0  0  0
M  END
