4lph_ligand
 OpenBabel08222323353D

 34 36  0  0  0  0  0  0  0  0999 V2000
    9.4640   71.5080   26.8230 O   0  0  0  0  0  1  0  0  0  0  0  0
    8.1020   71.9090   25.9810 P   0  0  0  0  0  0  0  0  0  0  0  0
    7.6670   73.3090   26.4040 O   0  0  0  0  0  1  0  0  0  0  0  0
    8.2080   71.5190   24.5460 O   0  0  0  0  0  0  0  0  0  0  0  0
    6.9960   70.7540   26.5990 C   0  0  0  0  0  0  0  0  0  0  0  0
    6.3720   71.5650   27.6570 N   0  0  0  0  0  0  0  0  0  0  0  0
    5.1220   71.3740   27.9910 C   0  0  0  0  0  0  0  0  0  0  0  0
    4.7410   70.0950   28.1780 N   0  0  0  0  0  0  0  0  0  0  0  0
    3.4360   69.8210   28.5490 C   0  0  0  0  0  0  0  0  0  0  0  0
    2.5990   70.9200   28.6980 N   0  0  0  0  0  0  0  0  0  0  0  0
    3.0600   72.1780   28.4940 C   0  0  0  0  0  0  0  0  0  0  0  0
    2.2850   73.5430   28.6340 S   0  0  0  0  0  0  0  0  0  0  0  0
    4.3280   72.4640   28.1280 C   0  0  0  0  0  0  0  0  0  0  0  0
    4.5830   73.8320   27.9770 C   0  0  0  0  0  0  0  0  0  0  0  0
    3.5170   74.6600   28.2220 C   0  0  0  0  0  0  0  0  0  0  0  0
    3.3550   76.0570   28.1690 C   0  0  0  0  0  0  0  0  0  0  0  0
    4.3920   77.0300   28.2180 C   0  0  0  0  0  0  0  0  0  0  0  0
    4.1380   78.4170   28.1240 C   0  0  0  0  0  0  0  0  0  0  0  0
    2.8400   78.9150   28.0190 C   0  0  0  0  0  0  0  0  0  0  0  0
    2.5660   80.3080   27.9670 C   0  0  0  0  0  0  0  0  0  0  0  0
    1.8030   77.9870   27.9740 C   0  0  0  0  0  0  0  0  0  0  0  0
    2.0640   76.6130   28.0670 C   0  0  0  0  0  0  0  0  0  0  0  0
    7.5090   69.8705   27.0067 H   0  0  0  0  0  0  0  0  0  0  0  0
    6.2660   70.4364   25.8399 H   0  0  0  0  0  0  0  0  0  0  0  0
    6.9244   72.2890   28.1383 H   0  0  0  0  0  0  0  0  0  0  0  0
    3.0872   68.8079   28.7137 H   0  0  0  0  0  0  0  0  0  0  0  0
    5.5606   74.2129   27.6851 H   0  0  0  0  0  0  0  0  0  0  0  0
    5.4164   76.6944   28.3318 H   0  0  0  0  0  0  0  0  0  0  0  0
    4.9717   79.1098   28.1338 H   0  0  0  0  0  0  0  0  0  0  0  0
    1.4804   80.4653   27.8852 H   0  0  0  0  0  0  0  0  0  0  0  0
    3.0672   80.7479   27.0922 H   0  0  0  0  0  0  0  0  0  0  0  0
    2.9382   80.7894   28.8834 H   0  0  0  0  0  0  0  0  0  0  0  0
    0.7809   78.3315   27.8657 H   0  0  0  0  0  0  0  0  0  0  0  0
    1.2186   75.9345   28.0600 H   0  0  0  0  0  0  0  0  0  0  0  0
  1  2  1  0  0  0  0
  2  3  1  0  0  0  0
  2  4  2  0  0  0  0
  2  5  1  0  0  0  0
  5  6  1  0  0  0  0
  5 23  1  0  0  0  0
  5 24  1  0  0  0  0
  6  7  1  0  0  0  0
  6 25  1  0  0  0  0
  7  8  2  0  0  0  0
  7 13  1  0  0  0  0
  8  9  1  0  0  0  0
  9 10  2  0  0  0  0
  9 26  1  0  0  0  0
 10 11  1  0  0  0  0
 11 12  1  0  0  0  0
 11 13  2  0  0  0  0
 12 15  1  0  0  0  0
 13 14  1  0  0  0  0
 14 15  2  0  0  0  0
 14 27  1  0  0  0  0
 15 16  1  0  0  0  0
 16 17  2  0  0  0  0
 16 22  1  0  0  0  0
 17 18  1  0  0  0  0
 17 28  1  0  0  0  0
 18 19  2  0  0  0  0
 18 29  1  0  0  0  0
 19 20  1  0  0  0  0
 19 21  1  0  0  0  0
 20 30  1  0  0  0  0
 20 31  1  0  0  0  0
 20 32  1  0  0  0  0
 21 22  2  0  0  0  0
 21 33  1  0  0  0  0
 22 34  1  0  0  0  0
M  END
