4lrh_ligand
 OpenBabel08222323353D

 50 52  0  0  1  0  0  0  0  0999 V2000
    0.6390   22.8320    7.0900 N   0  0  0  0  0  0  0  0  0  0  0  0
    1.1190   22.3080    8.2390 C   0  0  1  0  0  3  0  0  0  0  0  0
    0.2480   22.0650    9.2410 N   0  0  0  0  0  0  0  0  0  0  0  0
    2.4150   22.0220    8.4100 N   0  0  0  0  0  0  0  0  0  0  0  0
    3.3400   22.2330    7.4330 C   0  0  0  0  0  0  0  0  0  0  0  0
    4.5070   21.9690    7.5990 O   0  0  0  0  0  0  0  0  0  0  0  0
    2.9010   22.7900    6.1590 C   0  0  0  0  0  0  0  0  0  0  0  0
    3.7500   23.0150    5.1340 N   0  0  0  0  0  0  0  0  0  0  0  0
    3.2910   23.5220    3.9740 C   0  0  0  0  0  0  0  0  0  0  0  0
    1.9110   23.8260    3.8270 C   0  0  0  0  0  0  0  0  0  0  0  0
    1.0580   23.6010    4.8540 N   0  0  0  0  0  0  0  0  0  0  0  0
    1.4970   23.0870    6.0200 C   0  0  0  0  0  0  0  0  0  0  0  0
    4.2350   23.7510    2.8360 C   0  0  0  0  0  0  0  0  0  0  0  0
    4.2020   22.5770    1.9490 N   0  0  0  0  0  0  0  0  0  0  0  0
    7.4990   21.8180   -0.6260 C   0  0  0  0  0  0  0  0  0  0  0  0
    6.8520   20.7610    0.0730 C   0  0  0  0  0  0  0  0  0  0  0  0
    5.7660   21.0300    0.9200 C   0  0  0  0  0  0  0  0  0  0  0  0
    5.2990   22.3510    1.0980 C   0  0  0  0  0  0  0  0  0  0  0  0
    5.9440   23.4160    0.4010 C   0  0  0  0  0  0  0  0  0  0  0  0
    7.0340   23.1500   -0.4530 C   0  0  0  0  0  0  0  0  0  0  0  0
    8.6470   21.5250   -1.5160 C   0  0  0  0  0  0  0  0  0  0  0  0
    9.0320   22.3570   -2.3400 O   0  0  0  0  0  0  0  0  0  0  0  0
    9.2530   20.3100   -1.3960 N   0  0  0  0  0  0  0  0  0  0  0  0
   10.4920   20.0610   -2.1570 C   0  0  1  0  0  0  0  0  0  0  0  0
   11.7480   20.6550   -1.4330 C   0  0  0  0  0  0  0  0  0  0  0  0
   11.6120   20.6390    0.1130 C   0  0  0  0  0  0  0  0  0  0  0  0
   12.8440   21.2290    0.7840 C   0  0  0  0  0  0  0  0  0  0  0  0
   13.7790   21.6460    0.1250 O   0  5  0  0  0  0  0  0  0  0  0  0
   12.8990   21.2910    2.1280 O   0  0  0  0  0  0  0  0  0  0  0  0
   10.6220   18.5520   -2.3700 C   0  0  0  0  0  0  0  0  0  0  0  0
   11.3410   17.8730   -1.6560 O   0  5  0  0  0  0  0  0  0  0  0  0
    9.9090   17.9600   -3.3460 O   0  0  0  0  0  0  0  0  0  0  0  0
   -0.3652   23.0442    7.0036 H   0  0  0  0  0  0  0  0  0  0  0  0
    0.5833   21.6658   10.1293 H   0  0  0  0  0  0  0  0  0  0  0  0
   -0.7520   22.2787    9.1173 H   0  0  0  0  0  0  0  0  0  0  0  0
    2.7143   21.6405    9.2846 H   0  0  0  0  0  0  0  0  0  0  0  0
    1.5418   24.2373    2.8945 H   0  0  0  0  0  0  0  0  0  0  0  0
    5.2545   23.8926    3.2240 H   0  0  0  0  0  0  0  0  0  0  0  0
    3.9283   24.6465    2.2756 H   0  0  0  0  0  0  0  0  0  0  0  0
    3.3953   21.9365    1.9513 H   0  0  0  0  0  0  0  0  0  0  0  0
    7.2001   19.7417   -0.0495 H   0  0  0  0  0  0  0  0  0  0  0  0
    5.2800   20.2147    1.4436 H   0  0  0  0  0  0  0  0  0  0  0  0
    5.5945   24.4341    0.5286 H   0  0  0  0  0  0  0  0  0  0  0  0
    7.5190   23.9641   -0.9794 H   0  0  0  0  0  0  0  0  0  0  0  0
    8.8660   19.6025   -0.8047 H   0  0  0  0  0  0  0  0  0  0  0  0
   10.4054   20.5487   -3.1392 H   0  0  0  0  0  0  0  0  0  0  0  0
   11.8854   21.6952   -1.7633 H   0  0  0  0  0  0  0  0  0  0  0  0
   12.6301   20.0613   -1.7147 H   0  0  0  0  0  0  0  0  0  0  0  0
   11.4836   19.6000    0.4504 H   0  0  0  0  0  0  0  0  0  0  0  0
   10.7300   21.2298    0.4010 H   0  0  0  0  0  0  0  0  0  0  0  0
  1  2  1  0  0  0  0
  1 33  1  0  0  0  0
  2  3  1  6  0  0  0
  3 34  1  0  0  0  0
  3 35  1  0  0  0  0
  4  2  1  0  0  0  0
  4 36  1  0  0  0  0
  5  4  1  0  0  0  0
  5  6  2  0  0  0  0
  7  5  1  0  0  0  0
  7 12  1  0  0  0  0
  8  7  2  0  0  0  0
  9  8  1  0  0  0  0
  9 10  2  0  0  0  0
 10 11  1  0  0  0  0
 10 37  1  0  0  0  0
 11 12  2  0  0  0  0
 12  1  1  0  0  0  0
 13  9  1  0  0  0  0
 13 38  1  0  0  0  0
 13 39  1  0  0  0  0
 14 13  1  0  0  0  0
 14 40  1  0  0  0  0
 15 20  1  0  0  0  0
 15 21  1  0  0  0  0
 16 15  2  0  0  0  0
 16 41  1  0  0  0  0
 17 16  1  0  0  0  0
 17 18  2  0  0  0  0
 17 42  1  0  0  0  0
 18 14  1  0  0  0  0
 18 19  1  0  0  0  0
 19 20  2  0  0  0  0
 19 43  1  0  0  0  0
 20 44  1  0  0  0  0
 21 22  2  0  0  0  0
 21 23  1  0  0  0  0
 23 24  1  0  0  0  0
 23 45  1  0  0  0  0
 24 25  1  0  0  0  0
 24 30  1  0  0  0  0
 24 46  1  6  0  0  0
 25 26  1  0  0  0  0
 25 47  1  0  0  0  0
 25 48  1  0  0  0  0
 26 27  1  0  0  0  0
 26 49  1  0  0  0  0
 26 50  1  0  0  0  0
 27 28  1  0  0  0  0
 27 29  2  0  0  0  0
 30 31  1  0  0  0  0
 30 32  2  0  0  0  0
M  CHG  2  28  -1  31  -1
M  END
