4lte_ligand
 OpenBabel08222323353D

 89 91  0  0  1  0  0  0  0  0999 V2000
  -97.9410  -67.9810   24.5870 C   0  0  0  0  0  0  0  0  0  0  0  0
  -96.4840  -68.1990   24.9620 C   0  0  0  0  0  0  0  0  0  0  0  0
  -96.0880  -69.3280   25.1190 O   0  0  0  0  0  0  0  0  0  0  0  0
  -98.3870  -69.2770   23.9920 C   0  0  0  0  0  0  0  0  0  0  0  0
  -99.8780  -69.5160   24.2240 C   0  0  0  0  0  0  0  0  0  0  0  0
 -100.1990  -70.9810   24.1670 C   0  0  0  0  0  0  0  0  0  0  0  0
 -100.6810  -68.8420   23.1100 C   0  0  0  0  0  0  0  0  0  0  0  0
 -101.7000  -71.2630   24.3890 C   0  0  0  0  0  0  0  0  0  0  0  0
 -101.8150  -69.7250   22.4770 C   0  0  0  0  0  0  0  0  0  0  0  0
 -102.6330  -70.5330   23.4380 C   0  0  0  0  0  0  0  0  0  0  0  0
  -93.6610  -67.0910   30.3180 C   0  0  0  0  0  0  0  0  0  0  0  0
  -93.8480  -67.2310   31.8320 C   0  0  0  0  0  0  0  0  0  0  0  0
  -92.8360  -67.4420   34.1550 C   0  0  0  0  0  0  0  0  0  0  0  0
  -92.7140  -67.7680   28.1890 C   0  0  0  0  0  0  0  0  0  0  0  0
  -92.8430  -67.9310   29.5790 C   0  0  0  0  0  0  0  0  0  0  0  0
  -90.6590  -65.8500   33.3870 C   0  0  0  0  0  0  0  0  0  0  0  0
  -90.7250  -66.3560   34.6770 C   0  0  0  0  0  0  0  0  0  0  0  0
  -94.9330  -67.6060   32.2540 O   0  0  0  0  0  0  0  0  0  0  0  0
  -93.2710  -69.1820   23.9600 O   0  0  0  0  0  0  0  0  0  0  0  0
  -91.6700  -66.1230   32.4620 C   0  0  0  0  0  0  0  0  0  0  0  0
  -92.7480  -66.9250   32.8470 C   0  0  0  0  0  0  0  0  0  0  0  0
  -95.5380  -67.1390   25.1280 N   0  0  0  0  0  0  0  0  0  0  0  0
  -91.8260  -67.1480   35.0670 C   0  0  0  0  0  0  0  0  0  0  0  0
  -93.4220  -66.7450   27.5670 C   0  0  0  0  0  0  0  0  0  0  0  0
  -94.2610  -65.9150   28.3030 C   0  0  0  0  0  0  0  0  0  0  0  0
  -94.3820  -66.0800   29.6700 C   0  0  0  0  0  0  0  0  0  0  0  0
  -93.3290  -66.5230   26.0690 C   0  0  0  0  0  0  0  0  0  0  0  0
  -94.2110  -67.5830   25.4620 C   0  0  2  0  0  0  0  0  0  0  0  0
  -93.4480  -68.0120   24.2320 C   0  0  0  0  0  0  0  0  0  0  0  0
  -90.0370  -67.0900   18.8500 N   0  0  0  0  0  0  0  0  0  0  0  0
  -89.5380  -67.6780   20.0910 C   0  0  1  0  0  0  0  0  0  0  0  0
  -89.7370  -66.6680   21.1990 C   0  0  0  0  0  0  0  0  0  0  0  0
  -89.5660  -67.3360   22.5790 C   0  0  0  0  0  0  0  0  0  0  0  0
  -90.9010  -68.0300   22.9380 C   0  0  0  0  0  0  0  0  0  0  0  0
  -92.1370  -67.4220   22.2510 C   0  0  0  0  0  0  0  0  0  0  0  0
  -92.9050  -66.9860   23.3880 N   0  0  0  0  0  0  0  0  0  0  0  0
  -90.0950  -69.0630   20.3800 C   0  0  0  0  0  0  0  0  0  0  0  0
  -89.4650  -69.9250   20.9720 O   0  0  0  0  0  0  0  0  0  0  0  0
  -91.4420  -69.3990   19.9360 N   0  0  0  0  0  0  0  0  0  0  0  0
  -91.1430  -66.1160   18.6510 C   0  0  0  0  0  0  0  0  0  0  0  0
  -91.3960  -65.7390   17.5260 O   0  0  0  0  0  0  0  0  0  0  0  0
  -92.0000  -65.5620   19.8240 C   0  0  0  0  0  0  0  0  0  0  0  0
  -93.3330  -65.2280   19.6700 C   0  0  0  0  0  0  0  0  0  0  0  0
  -94.0790  -64.7040   20.8990 C   0  0  0  0  0  0  0  0  0  0  0  0
  -94.5380  -65.4920   21.6840 O   0  5  0  0  0  0  0  0  0  0  0  0
  -98.0334  -67.1669   23.8530 H   0  0  0  0  0  0  0  0  0  0  0  0
  -98.5376  -67.7399   25.4791 H   0  0  0  0  0  0  0  0  0  0  0  0
  -97.8175  -70.0971   24.4537 H   0  0  0  0  0  0  0  0  0  0  0  0
  -98.1921  -69.2592   22.9096 H   0  0  0  0  0  0  0  0  0  0  0  0
 -100.1668  -69.1060   25.2030 H   0  0  0  0  0  0  0  0  0  0  0  0
  -99.6229  -71.4996   24.9475 H   0  0  0  0  0  0  0  0  0  0  0  0
  -99.9092  -71.3681   23.1790 H   0  0  0  0  0  0  0  0  0  0  0  0
  -99.9819  -68.5600   22.3090 H   0  0  0  0  0  0  0  0  0  0  0  0
 -101.1467  -67.9364   23.5259 H   0  0  0  0  0  0  0  0  0  0  0  0
 -101.9561  -70.9641   25.4162 H   0  0  0  0  0  0  0  0  0  0  0  0
 -101.8665  -72.3437   24.2693 H   0  0  0  0  0  0  0  0  0  0  0  0
 -101.3430  -70.4216   21.7686 H   0  0  0  0  0  0  0  0  0  0  0  0
 -102.4983  -69.0561   21.9333 H   0  0  0  0  0  0  0  0  0  0  0  0
 -103.2951  -69.8664   24.0100 H   0  0  0  0  0  0  0  0  0  0  0  0
 -103.2393  -71.2637   22.8826 H   0  0  0  0  0  0  0  0  0  0  0  0
  -93.6778  -68.0596   34.4468 H   0  0  0  0  0  0  0  0  0  0  0  0
  -92.0749  -68.4270   27.6126 H   0  0  0  0  0  0  0  0  0  0  0  0
  -92.2965  -68.7227   30.0787 H   0  0  0  0  0  0  0  0  0  0  0  0
  -89.8147  -65.2367   33.0937 H   0  0  0  0  0  0  0  0  0  0  0  0
  -89.9318  -66.1433   35.3846 H   0  0  0  0  0  0  0  0  0  0  0  0
  -91.6189  -65.7177   31.4579 H   0  0  0  0  0  0  0  0  0  0  0  0
  -95.7780  -66.1741   25.0213 H   0  0  0  0  0  0  0  0  0  0  0  0
  -91.8855  -67.5288   36.0802 H   0  0  0  0  0  0  0  0  0  0  0  0
  -94.8228  -65.1349   27.8021 H   0  0  0  0  0  0  0  0  0  0  0  0
  -95.0340  -65.4279   30.2398 H   0  0  0  0  0  0  0  0  0  0  0  0
  -92.2909  -66.6401   25.7245 H   0  0  0  0  0  0  0  0  0  0  0  0
  -93.6924  -65.5193   25.8036 H   0  0  0  0  0  0  0  0  0  0  0  0
  -94.3035  -68.4264   26.1621 H   0  0  0  0  0  0  0  0  0  0  0  0
  -89.5687  -67.3840   18.0168 H   0  0  0  0  0  0  0  0  0  0  0  0
  -88.4527  -67.8116   19.9720 H   0  0  0  0  0  0  0  0  0  0  0  0
  -90.7497  -66.2449   21.1251 H   0  0  0  0  0  0  0  0  0  0  0  0
  -88.9947  -65.8633   21.0924 H   0  0  0  0  0  0  0  0  0  0  0  0
  -89.3248  -66.5749   23.3357 H   0  0  0  0  0  0  0  0  0  0  0  0
  -88.7571  -68.0803   22.5367 H   0  0  0  0  0  0  0  0  0  0  0  0
  -91.0433  -67.9607   24.0265 H   0  0  0  0  0  0  0  0  0  0  0  0
  -90.8292  -69.0876   22.6441 H   0  0  0  0  0  0  0  0  0  0  0  0
  -92.6815  -68.1747   21.6619 H   0  0  0  0  0  0  0  0  0  0  0  0
  -91.8625  -66.5770   21.6024 H   0  0  0  0  0  0  0  0  0  0  0  0
  -93.0529  -66.0159   23.5803 H   0  0  0  0  0  0  0  0  0  0  0  0
  -91.8175  -70.3071   20.1211 H   0  0  0  0  0  0  0  0  0  0  0  0
  -91.9906  -68.7214   19.4463 H   0  0  0  0  0  0  0  0  0  0  0  0
  -91.5347  -65.4326   20.8000 H   0  0  0  0  0  0  0  0  0  0  0  0
  -93.8338  -65.3340   18.7088 H   0  0  0  0  0  0  0  0  0  0  0  0
  -94.1930  -63.6322   21.0610 O   0  0  0  0  0  0  0  0  0  0  0  0
  1  4  1  0  0  0  0
  1 46  1  0  0  0  0
  1 47  1  0  0  0  0
  2  1  1  0  0  0  0
  2  3  2  0  0  0  0
  4  5  1  0  0  0  0
  4 48  1  0  0  0  0
  4 49  1  0  0  0  0
  5  6  1  0  0  0  0
  5  7  1  0  0  0  0
  5 50  1  0  0  0  0
  6  8  1  0  0  0  0
  6 51  1  0  0  0  0
  6 52  1  0  0  0  0
  7  9  1  0  0  0  0
  7 53  1  0  0  0  0
  7 54  1  0  0  0  0
  8 10  1  0  0  0  0
  8 55  1  0  0  0  0
  8 56  1  0  0  0  0
  9 10  1  0  0  0  0
  9 57  1  0  0  0  0
  9 58  1  0  0  0  0
 10 59  1  0  0  0  0
 10 60  1  0  0  0  0
 11 12  1  0  0  0  0
 12 18  2  0  0  0  0
 12 21  1  0  0  0  0
 13 23  1  0  0  0  0
 13 61  1  0  0  0  0
 14 15  1  0  0  0  0
 14 62  1  0  0  0  0
 15 11  2  0  0  0  0
 15 63  1  0  0  0  0
 16 17  1  0  0  0  0
 16 64  1  0  0  0  0
 17 65  1  0  0  0  0
 20 16  2  0  0  0  0
 20 66  1  0  0  0  0
 21 13  2  0  0  0  0
 21 20  1  0  0  0  0
 22  2  1  0  0  0  0
 22 67  1  0  0  0  0
 23 17  2  0  0  0  0
 23 68  1  0  0  0  0
 24 14  2  0  0  0  0
 24 25  1  0  0  0  0
 25 26  2  0  0  0  0
 25 69  1  0  0  0  0
 26 11  1  0  0  0  0
 26 70  1  0  0  0  0
 27 24  1  0  0  0  0
 27 71  1  0  0  0  0
 27 72  1  0  0  0  0
 28 22  1  0  0  0  0
 28 27  1  0  0  0  0
 28 73  1  1  0  0  0
 29 19  2  0  0  0  0
 29 28  1  0  0  0  0
 30 40  1  0  0  0  0
 30 74  1  0  0  0  0
 31 30  1  0  0  0  0
 31 37  1  0  0  0  0
 31 75  1  6  0  0  0
 32 31  1  0  0  0  0
 32 76  1  0  0  0  0
 32 77  1  0  0  0  0
 33 32  1  0  0  0  0
 33 78  1  0  0  0  0
 33 79  1  0  0  0  0
 34 33  1  0  0  0  0
 34 80  1  0  0  0  0
 34 81  1  0  0  0  0
 35 34  1  0  0  0  0
 35 36  1  0  0  0  0
 35 82  1  0  0  0  0
 35 83  1  0  0  0  0
 36 29  1  0  0  0  0
 36 84  1  0  0  0  0
 37 38  2  0  0  0  0
 37 39  1  0  0  0  0
 39 85  1  0  0  0  0
 39 86  1  0  0  0  0
 40 41  2  0  0  0  0
 40 42  1  0  0  0  0
 42 43  2  0  0  0  0
 42 87  1  0  0  0  0
 43 44  1  0  0  0  0
 43 88  1  0  0  0  0
 44 45  1  0  0  0  0
 44 89  2  0  0  0  0
M  CHG  1  45  -1
M  END
