4lv4_ligand
 OpenBabel08222323353D

 20 21  0  0  0  0  0  0  0  0999 V2000
   11.0650  160.0510   20.7510 O   0  5  0  0  0  0  0  0  0  0  0  0
   11.7830  159.4190   21.5630 C   0  0  0  0  0  0  0  0  0  0  0  0
   11.7000  159.5890   22.8360 O   0  0  0  0  0  0  0  0  0  0  0  0
   12.7330  158.4070   21.0250 C   0  0  0  0  0  0  0  0  0  0  0  0
   13.4000  157.7490   21.9530 N   0  0  0  0  0  0  0  0  0  0  0  0
   14.3010  156.7960   21.6770 C   0  0  0  0  0  0  0  0  0  0  0  0
   14.5670  156.4500   20.3760 C   0  0  0  0  0  0  0  0  0  0  0  0
   15.5300  155.4350   20.1450 C   0  0  0  0  0  0  0  0  0  0  0  0
   16.1670  154.8250   21.2350 C   0  0  0  0  0  0  0  0  0  0  0  0
   15.8680  155.2050   22.5550 C   0  0  0  0  0  0  0  0  0  0  0  0
   14.9220  156.1980   22.7780 C   0  0  0  0  0  0  0  0  0  0  0  0
   14.5280  156.6810   24.0110 O   0  0  0  0  0  0  0  0  0  0  0  0
   13.8680  157.1290   19.3290 C   0  0  0  0  0  0  0  0  0  0  0  0
   12.9330  158.1320   19.6670 C   0  0  0  0  0  0  0  0  0  0  0  0
   15.7720  155.1327   19.1325 H   0  0  0  0  0  0  0  0  0  0  0  0
   16.9017  154.0481   21.0570 H   0  0  0  0  0  0  0  0  0  0  0  0
   16.3698  154.7287   23.3895 H   0  0  0  0  0  0  0  0  0  0  0  0
   13.8697  157.3552   23.8901 H   0  0  0  0  0  0  0  0  0  0  0  0
   14.0533  156.8773   18.2910 H   0  0  0  0  0  0  0  0  0  0  0  0
   12.3883  158.6710   18.9003 H   0  0  0  0  0  0  0  0  0  0  0  0
  1  2  1  0  0  0  0
  2  3  2  0  0  0  0
  2  4  1  0  0  0  0
  4  5  2  0  0  0  0
  4 14  1  0  0  0  0
  5  6  1  0  0  0  0
  6  7  2  0  0  0  0
  6 11  1  0  0  0  0
  7  8  1  0  0  0  0
  7 13  1  0  0  0  0
  8  9  2  0  0  0  0
  8 15  1  0  0  0  0
  9 10  1  0  0  0  0
  9 16  1  0  0  0  0
 10 11  2  0  0  0  0
 10 17  1  0  0  0  0
 11 12  1  0  0  0  0
 12 18  1  0  0  0  0
 13 14  2  0  0  0  0
 13 19  1  0  0  0  0
 14 20  1  0  0  0  0
M  CHG  1   1  -1
M  END
