4lwc_ligand
 OpenBabel08222323353D

 55 59  0  0  0  0  0  0  0  0999 V2000
   -4.6010   11.3190   -1.9490 C   0  0  0  0  0  0  0  0  0  0  0  0
   -3.3070   11.6890   -1.7470 C   0  0  0  0  0  0  0  0  0  0  0  0
   -3.0570   11.3260   -0.3900 C   0  0  0  0  0  0  0  0  0  0  0  0
   -4.1490   10.8210    0.0820 N   0  0  0  0  0  0  0  0  0  0  0  0
   -5.0530   10.8070   -0.8210 N   0  0  0  0  0  0  0  0  0  0  0  0
   -4.3810   10.3200    1.4160 C   0  0  0  0  0  0  0  0  0  0  0  0
   -1.7460   11.5570    0.3430 C   0  0  0  0  0  0  0  0  0  0  0  0
   -5.1120   11.1090    2.3480 C   0  0  0  0  0  0  0  0  0  0  0  0
   -5.3550   10.6530    3.6070 C   0  0  0  0  0  0  0  0  0  0  0  0
   -4.8750    9.3850    3.9870 C   0  0  0  0  0  0  0  0  0  0  0  0
   -4.1390    8.5830    3.0470 C   0  0  0  0  0  0  0  0  0  0  0  0
   -3.8990    9.0270    1.8040 C   0  0  0  0  0  0  0  0  0  0  0  0
   -3.5480    6.9790    3.5750 Cl  0  0  0  0  0  0  0  0  0  0  0  0
   -5.1630    8.7730    5.5630 Cl  0  0  0  0  0  0  0  0  0  0  0  0
   -0.5390   11.2010   -0.2260 C   0  0  0  0  0  0  0  0  0  0  0  0
    0.6490   11.4370    0.4580 C   0  0  0  0  0  0  0  0  0  0  0  0
    0.6120   12.0400    1.7210 C   0  0  0  0  0  0  0  0  0  0  0  0
   -0.6120   12.4140    2.2990 C   0  0  0  0  0  0  0  0  0  0  0  0
   -1.7770   12.1810    1.6200 C   0  0  0  0  0  0  0  0  0  0  0  0
    1.9520   12.3320    2.5210 C   0  0  0  0  0  0  0  0  0  0  0  0
    3.0480   11.6060    1.9170 N   0  0  0  0  0  0  0  0  0  0  0  0
    3.6360   10.7400    2.9260 C   0  0  0  0  0  0  0  0  0  0  0  0
    4.7140    9.7620    2.5190 C   0  0  0  0  0  0  0  0  0  0  0  0
    6.0240    9.8810    3.1100 C   0  0  0  0  0  0  0  0  0  0  0  0
    7.0010    8.9970    2.7550 C   0  0  0  0  0  0  0  0  0  0  0  0
    6.6820    7.9990    1.8240 C   0  0  0  0  0  0  0  0  0  0  0  0
    5.3640    7.8880    1.2280 C   0  0  0  0  0  0  0  0  0  0  0  0
    4.4030    8.7450    1.5690 C   0  0  0  0  0  0  0  0  0  0  0  0
    2.9650   10.5260    4.4320 S   0  0  0  0  0  0  0  0  0  0  0  0
    7.6820    6.9620    1.3370 C   0  0  0  0  0  0  0  0  0  0  0  0
    8.8620    6.4790    1.9200 C   0  0  0  0  0  0  0  0  0  0  0  0
    9.3660    5.4900    0.9710 C   0  0  0  0  0  0  0  0  0  0  0  0
    8.4110    5.4870   -0.0820 C   0  0  0  0  0  0  0  0  0  0  0  0
    7.4690    6.3410    0.1740 O   0  0  0  0  0  0  0  0  0  0  0  0
    8.3910    4.6860   -1.3320 C   0  0  0  0  0  0  0  0  0  0  0  0
    9.2570    3.8370   -1.5510 O   0  5  0  0  0  0  0  0  0  0  0  0
    7.4510    4.9200   -2.1600 O   0  0  0  0  0  0  0  0  0  0  0  0
    2.8980    8.5850    0.8680 Cl  0  0  0  0  0  0  0  0  0  0  0  0
   -5.1624   11.4265   -2.8759 H   0  0  0  0  0  0  0  0  0  0  0  0
   -2.6225   12.1534   -2.4553 H   0  0  0  0  0  0  0  0  0  0  0  0
   -5.4796   12.0847    2.0515 H   0  0  0  0  0  0  0  0  0  0  0  0
   -5.9128   11.2602    4.3107 H   0  0  0  0  0  0  0  0  0  0  0  0
   -3.3465    8.4145    1.1006 H   0  0  0  0  0  0  0  0  0  0  0  0
   -0.5174   10.7376   -1.2057 H   0  0  0  0  0  0  0  0  0  0  0  0
    1.5979   11.1557    0.0158 H   0  0  0  0  0  0  0  0  0  0  0  0
   -0.6338   12.8837    3.2757 H   0  0  0  0  0  0  0  0  0  0  0  0
   -2.7253   12.4728    2.0567 H   0  0  0  0  0  0  0  0  0  0  0  0
    1.8318   12.0099    3.5659 H   0  0  0  0  0  0  0  0  0  0  0  0
    2.1676   13.4103    2.4922 H   0  0  0  0  0  0  0  0  0  0  0  0
    3.3498   11.6862    0.9670 H   0  0  0  0  0  0  0  0  0  0  0  0
    6.2306   10.6652    3.8294 H   0  0  0  0  0  0  0  0  0  0  0  0
    7.9955    9.0647    3.1809 H   0  0  0  0  0  0  0  0  0  0  0  0
    5.1610    7.1068    0.5044 H   0  0  0  0  0  0  0  0  0  0  0  0
    9.3046    6.7755    2.8698 H   0  0  0  0  0  0  0  0  0  0  0  0
   10.2708    4.8893    1.0519 H   0  0  0  0  0  0  0  0  0  0  0  0
  1  2  1  0  0  0  0
  1  5  2  0  0  0  0
  1 39  1  0  0  0  0
  2  3  2  0  0  0  0
  2 40  1  0  0  0  0
  3  4  1  0  0  0  0
  3  7  1  0  0  0  0
  4  5  1  0  0  0  0
  4  6  1  0  0  0  0
  6  8  2  0  0  0  0
  6 12  1  0  0  0  0
  7 15  2  0  0  0  0
  7 19  1  0  0  0  0
  8  9  1  0  0  0  0
  8 41  1  0  0  0  0
  9 10  2  0  0  0  0
  9 42  1  0  0  0  0
 10 11  1  0  0  0  0
 10 14  1  0  0  0  0
 11 12  2  0  0  0  0
 11 13  1  0  0  0  0
 12 43  1  0  0  0  0
 15 16  1  0  0  0  0
 15 44  1  0  0  0  0
 16 17  2  0  0  0  0
 16 45  1  0  0  0  0
 17 18  1  0  0  0  0
 17 20  1  0  0  0  0
 18 19  2  0  0  0  0
 18 46  1  0  0  0  0
 19 47  1  0  0  0  0
 20 21  1  0  0  0  0
 20 48  1  0  0  0  0
 20 49  1  0  0  0  0
 21 22  1  0  0  0  0
 21 50  1  0  0  0  0
 22 23  1  0  0  0  0
 22 29  2  0  0  0  0
 23 24  2  0  0  0  0
 23 28  1  0  0  0  0
 24 25  1  0  0  0  0
 24 51  1  0  0  0  0
 25 26  2  0  0  0  0
 25 52  1  0  0  0  0
 26 27  1  0  0  0  0
 26 30  1  0  0  0  0
 27 28  2  0  0  0  0
 27 53  1  0  0  0  0
 28 38  1  0  0  0  0
 30 31  2  0  0  0  0
 30 34  1  0  0  0  0
 31 32  1  0  0  0  0
 31 54  1  0  0  0  0
 32 33  2  0  0  0  0
 32 55  1  0  0  0  0
 33 34  1  0  0  0  0
 33 35  1  0  0  0  0
 35 36  1  0  0  0  0
 35 37  2  0  0  0  0
M  CHG  1  36  -1
M  END
