4lwu_ligand
 OpenBabel08222323353D

 70 74  0  0  1  0  0  0  0  0999 V2000
  -11.0550   16.1890   -7.0660 N   0  0  0  0  0  0  0  0  0  0  0  0
  -12.1140   15.9180   -6.1530 C   0  0  0  0  0  0  0  0  0  0  0  0
  -12.5700   14.6740   -5.8260 C   0  0  0  0  0  0  0  0  0  0  0  0
  -13.5920   14.6220   -4.8820 C   0  0  0  0  0  0  0  0  0  0  0  0
  -14.1980   13.0930   -4.3660 Cl  0  0  0  0  0  0  0  0  0  0  0  0
  -10.8610   17.5860   -7.1290 C   0  0  0  0  0  0  0  0  0  0  0  0
   -9.9720   18.1210   -7.7990 O   0  0  0  0  0  0  0  0  0  0  0  0
  -11.9150   18.2710   -6.2580 C   0  0  2  0  0  0  0  0  0  0  0  0
  -12.8130   19.1320   -7.1200 C   0  0  2  0  0  0  0  0  0  0  0  0
  -13.1900   18.4480   -8.4430 C   0  0  0  0  0  0  0  0  0  0  0  0
  -14.5360   18.9810   -8.9790 C   0  0  0  0  0  0  0  0  0  0  0  0
  -14.5260   20.5120   -8.9950 C   0  0  0  0  0  0  0  0  0  0  0  0
  -15.6690   18.4900   -8.0730 C   0  0  0  0  0  0  0  0  0  0  0  0
  -14.7640   18.4580  -10.4020 C   0  0  0  0  0  0  0  0  0  0  0  0
  -12.0070   20.3630   -7.3510 N   0  3  0  0  0  0  0  0  0  0  0  0
  -11.3300   19.2880   -5.2770 C   0  0  1  0  0  0  0  0  0  0  0  0
  -10.0830   18.8260   -4.5560 C   0  0  0  0  0  0  0  0  0  0  0  0
   -8.8040   19.0600   -5.0700 C   0  0  0  0  0  0  0  0  0  0  0  0
   -7.6740   18.6450   -4.3290 C   0  0  0  0  0  0  0  0  0  0  0  0
   -7.8370   17.9980   -3.0890 C   0  0  0  0  0  0  0  0  0  0  0  0
  -10.1990   18.1890   -3.3500 C   0  0  0  0  0  0  0  0  0  0  0  0
  -11.4330   17.9810   -2.8510 F   0  0  0  0  0  0  0  0  0  0  0  0
   -9.1220   17.7630   -2.6160 C   0  0  0  0  0  0  0  0  0  0  0  0
   -9.3710   16.9260   -1.1060 Cl  0  0  0  0  0  0  0  0  0  0  0  0
  -11.0980   20.5270   -6.1510 C   0  0  2  0  0  0  0  0  0  0  0  0
  -11.4600   21.7870   -5.4380 C   0  0  0  0  0  0  0  0  0  0  0  0
  -12.4050   22.5830   -6.1210 N   0  0  0  0  0  0  0  0  0  0  0  0
  -12.8330   23.9080   -5.7570 C   0  0  0  0  0  0  0  0  0  0  0  0
  -12.4110   24.5030   -4.5760 C   0  0  0  0  0  0  0  0  0  0  0  0
  -13.6690   24.5610   -6.6520 C   0  0  0  0  0  0  0  0  0  0  0  0
  -14.0610   25.8580   -6.3930 C   0  0  0  0  0  0  0  0  0  0  0  0
  -13.6210   26.5060   -5.2370 C   0  0  0  0  0  0  0  0  0  0  0  0
  -13.9990   27.9010   -4.9970 C   0  0  0  0  0  0  0  0  0  0  0  0
  -13.7080   28.5230   -3.9640 O   0  0  0  0  0  0  0  0  0  0  0  0
  -14.7180   28.5500   -5.9840 N   0  0  0  0  0  0  0  0  0  0  0  0
  -12.8070   25.8130   -4.3130 C   0  0  0  0  0  0  0  0  0  0  0  0
  -10.9930   22.1210   -4.3480 O   0  0  0  0  0  0  0  0  0  0  0  0
  -12.6070   17.0740   -5.6520 C   0  0  0  0  0  0  0  0  0  0  0  0
  -13.6240   17.0680   -4.7240 C   0  0  0  0  0  0  0  0  0  0  0  0
  -14.1370   15.8140   -4.3250 C   0  0  0  0  0  0  0  0  0  0  0  0
  -10.5356   15.5041   -7.5771 H   0  0  0  0  0  0  0  0  0  0  0  0
  -12.1597   13.7771   -6.2758 H   0  0  0  0  0  0  0  0  0  0  0  0
  -13.7372   19.3773   -6.5763 H   0  0  0  0  0  0  0  0  0  0  0  0
  -13.2735   17.3639   -8.2762 H   0  0  0  0  0  0  0  0  0  0  0  0
  -12.4036   18.6452   -9.1865 H   0  0  0  0  0  0  0  0  0  0  0  0
  -15.4888   20.8809   -9.3782 H   0  0  0  0  0  0  0  0  0  0  0  0
  -13.7125   20.8666   -9.6450 H   0  0  0  0  0  0  0  0  0  0  0  0
  -14.3696   20.8884   -7.9733 H   0  0  0  0  0  0  0  0  0  0  0  0
  -15.6778   17.3901   -8.0603 H   0  0  0  0  0  0  0  0  0  0  0  0
  -16.6314   18.8599   -8.4562 H   0  0  0  0  0  0  0  0  0  0  0  0
  -15.5116   18.8672   -7.0518 H   0  0  0  0  0  0  0  0  0  0  0  0
  -13.9520   18.8087  -11.0560 H   0  0  0  0  0  0  0  0  0  0  0  0
  -15.7268   18.8320  -10.7803 H   0  0  0  0  0  0  0  0  0  0  0  0
  -14.7767   17.3581  -10.3908 H   0  0  0  0  0  0  0  0  0  0  0  0
  -12.6138   21.1632   -7.4378 H   0  0  0  0  0  0  0  0  0  0  0  0
  -11.4579   20.2651   -8.1906 H   0  0  0  0  0  0  0  0  0  0  0  0
  -12.0821   19.5193   -4.5084 H   0  0  0  0  0  0  0  0  0  0  0  0
   -8.6802   19.5545   -6.0267 H   0  0  0  0  0  0  0  0  0  0  0  0
   -6.6780   18.8256   -4.7169 H   0  0  0  0  0  0  0  0  0  0  0  0
   -6.9731   17.6880   -2.5123 H   0  0  0  0  0  0  0  0  0  0  0  0
  -10.0450   20.5743   -6.4657 H   0  0  0  0  0  0  0  0  0  0  0  0
  -12.8187   22.1861   -6.9404 H   0  0  0  0  0  0  0  0  0  0  0  0
  -11.7875   23.9609   -3.8742 H   0  0  0  0  0  0  0  0  0  0  0  0
  -14.0113   24.0556   -7.5478 H   0  0  0  0  0  0  0  0  0  0  0  0
  -14.7120   26.3753   -7.0884 H   0  0  0  0  0  0  0  0  0  0  0  0
  -14.9943   29.5026   -5.8569 H   0  0  0  0  0  0  0  0  0  0  0  0
  -14.9616   28.0667   -6.8249 H   0  0  0  0  0  0  0  0  0  0  0  0
  -12.4901   26.3010   -3.3984 H   0  0  0  0  0  0  0  0  0  0  0  0
  -14.0166   17.9918   -4.3146 H   0  0  0  0  0  0  0  0  0  0  0  0
  -14.9405   15.7592   -3.5994 H   0  0  0  0  0  0  0  0  0  0  0  0
  1  2  1  0  0  0  0
  1  6  1  0  0  0  0
  1 41  1  0  0  0  0
  2  3  2  0  0  0  0
  2 38  1  0  0  0  0
  3  4  1  0  0  0  0
  3 42  1  0  0  0  0
  4  5  1  0  0  0  0
  4 40  2  0  0  0  0
  6  7  2  0  0  0  0
  8  6  1  6  0  0  0
  8  9  1  0  0  0  0
  8 16  1  0  0  0  0
  8 38  1  0  0  0  0
  9 10  1  0  0  0  0
  9 15  1  0  0  0  0
  9 43  1  1  0  0  0
 10 11  1  0  0  0  0
 10 44  1  0  0  0  0
 10 45  1  0  0  0  0
 11 12  1  0  0  0  0
 11 13  1  0  0  0  0
 11 14  1  0  0  0  0
 12 46  1  0  0  0  0
 12 47  1  0  0  0  0
 12 48  1  0  0  0  0
 13 49  1  0  0  0  0
 13 50  1  0  0  0  0
 13 51  1  0  0  0  0
 14 52  1  0  0  0  0
 14 53  1  0  0  0  0
 14 54  1  0  0  0  0
 15 25  1  0  0  0  0
 15 55  1  0  0  0  0
 15 56  1  0  0  0  0
 16 17  1  0  0  0  0
 16 25  1  0  0  0  0
 16 57  1  1  0  0  0
 17 18  2  0  0  0  0
 17 21  1  0  0  0  0
 18 19  1  0  0  0  0
 18 58  1  0  0  0  0
 19 20  2  0  0  0  0
 19 59  1  0  0  0  0
 20 23  1  0  0  0  0
 20 60  1  0  0  0  0
 21 22  1  0  0  0  0
 21 23  2  0  0  0  0
 23 24  1  0  0  0  0
 25 26  1  0  0  0  0
 25 61  1  6  0  0  0
 26 27  1  0  0  0  0
 26 37  2  0  0  0  0
 27 28  1  0  0  0  0
 27 62  1  0  0  0  0
 28 29  2  0  0  0  0
 28 30  1  0  0  0  0
 29 36  1  0  0  0  0
 29 63  1  0  0  0  0
 30 31  2  0  0  0  0
 30 64  1  0  0  0  0
 31 32  1  0  0  0  0
 31 65  1  0  0  0  0
 32 33  1  0  0  0  0
 32 36  2  0  0  0  0
 33 34  2  0  0  0  0
 33 35  1  0  0  0  0
 35 66  1  0  0  0  0
 35 67  1  0  0  0  0
 36 68  1  0  0  0  0
 38 39  2  0  0  0  0
 39 40  1  0  0  0  0
 39 69  1  0  0  0  0
 40 70  1  0  0  0  0
M  CHG  1  15   1
M  END
