4lxk_ligand
 OpenBabel08222323353D

 76 78  0  0  1  0  0  0  0  0999 V2000
   31.7580    8.1790   20.6320 F   0  0  0  0  0  0  0  0  0  0  0  0
   30.5230    8.6360   20.9560 C   0  0  0  0  0  0  0  0  0  0  0  0
   29.9180    7.7100   21.7460 F   0  0  0  0  0  0  0  0  0  0  0  0
   30.6600    9.8010   21.6280 F   0  0  0  0  0  0  0  0  0  0  0  0
   29.7130    8.9060   19.6650 C   0  0  2  0  0  0  0  0  0  0  0  0
   30.3950    9.9360   18.9140 O   0  0  0  0  0  0  0  0  0  0  0  0
   30.7180    9.7200   17.5800 C   0  0  0  0  0  0  0  0  0  0  0  0
   30.3650   10.7000   16.6190 C   0  0  0  0  0  0  0  0  0  0  0  0
   30.6850   10.4850   15.2530 C   0  0  0  0  0  0  0  0  0  0  0  0
   31.3510    9.3020   14.8540 C   0  0  0  0  0  0  0  0  0  0  0  0
   31.6980    8.3200   15.8220 C   0  0  0  0  0  0  0  0  0  0  0  0
   31.3830    8.5400   17.1790 C   0  0  0  0  0  0  0  0  0  0  0  0
   32.3930    7.0070   15.4210 C   0  0  0  0  0  0  0  0  0  0  0  0
   31.4080    6.0450   14.6610 C   0  0  1  0  0  0  0  0  0  0  0  0
   32.0130    4.6650   14.2640 C   0  0  1  0  0  0  0  0  0  0  0  0
   31.0590    3.8290   13.3490 C   0  0  2  0  0  0  0  0  0  0  0  0
   29.6410    3.5810   13.9460 C   0  0  0  0  0  0  0  0  0  0  0  0
   28.8100    5.1100   14.3990 S   0  0  1  0  0  3  0  0  0  0  0  0
   30.0730    5.8260   15.4540 C   0  0  0  0  0  0  0  0  0  0  0  0
   28.7390    5.9950   13.1830 O   0  0  0  0  0  0  0  0  0  0  0  0
   31.6480    2.5000   13.0080 N   0  3  0  0  0  0  0  0  0  0  0  0
   31.0950    1.6420   11.9140 C   0  0  0  0  0  0  0  0  0  0  0  0
   30.9710    2.4560   10.6080 C   0  0  0  0  0  0  0  0  0  0  0  0
   32.1370    2.8960    9.9390 C   0  0  0  0  0  0  0  0  0  0  0  0
   32.0940    3.6550    8.7320 C   0  0  0  0  0  0  0  0  0  0  0  0
   30.7900    3.9490    8.2270 C   0  0  0  0  0  0  0  0  0  0  0  0
   29.6090    3.5190    8.8770 C   0  0  0  0  0  0  0  0  0  0  0  0
   29.6940    2.7670   10.0730 C   0  0  0  0  0  0  0  0  0  0  0  0
   33.4160    4.1250    8.0270 C   0  0  0  0  0  0  0  0  0  0  0  0
   34.3920    2.9200    7.9000 C   0  0  0  0  0  0  0  0  0  0  0  0
   33.2440    4.7170    6.5850 C   0  0  0  0  0  0  0  0  0  0  0  0
   34.1300    5.2460    8.8520 C   0  0  0  0  0  0  0  0  0  0  0  0
   33.2390    4.8120   13.5390 O   0  0  0  0  0  0  0  0  0  0  0  0
   30.3550   11.3960   14.3410 F   0  0  0  0  0  0  0  0  0  0  0  0
   29.7250   11.8310   17.0040 N   0  0  0  0  0  0  0  0  0  0  0  0
   28.2310    9.2670   19.9690 C   0  0  0  0  0  0  0  0  0  0  0  0
   27.5420    9.5200   18.7300 O   0  0  0  0  0  0  0  0  0  0  0  0
   26.1180    9.6780   18.8880 C   0  0  0  0  0  0  0  0  0  0  0  0
   29.7099    7.9866   19.0611 H   0  0  0  0  0  0  0  0  0  0  0  0
   31.5967    9.1443   13.8101 H   0  0  0  0  0  0  0  0  0  0  0  0
   31.6535    7.7972   17.9207 H   0  0  0  0  0  0  0  0  0  0  0  0
   32.7565    6.5028   16.3286 H   0  0  0  0  0  0  0  0  0  0  0  0
   33.2445    7.2388   14.7643 H   0  0  0  0  0  0  0  0  0  0  0  0
   31.1474    6.5549   13.7218 H   0  0  0  0  0  0  0  0  0  0  0  0
   32.2059    4.1016   15.1888 H   0  0  0  0  0  0  0  0  0  0  0  0
   30.9323    4.3980   12.4162 H   0  0  0  0  0  0  0  0  0  0  0  0
   29.7407    2.9539   14.8442 H   0  0  0  0  0  0  0  0  0  0  0  0
   29.0298    3.0553   13.1977 H   0  0  0  0  0  0  0  0  0  0  0  0
   29.7173    6.7948   15.8345 H   0  0  0  0  0  0  0  0  0  0  0  0
   30.2633    5.1477   16.2988 H   0  0  0  0  0  0  0  0  0  0  0  0
   28.5072    6.8773   13.4480 H   0  0  0  0  0  0  0  0  0  0  0  0
   31.6023    1.9473   13.8497 H   0  0  0  0  0  0  0  0  0  0  0  0
   32.6125    2.6719   12.7708 H   0  0  0  0  0  0  0  0  0  0  0  0
   30.1011    1.2739   12.2083 H   0  0  0  0  0  0  0  0  0  0  0  0
   31.7677    0.7878   11.7471 H   0  0  0  0  0  0  0  0  0  0  0  0
   33.1036    2.6460   10.3612 H   0  0  0  0  0  0  0  0  0  0  0  0
   30.7022    4.5230    7.3116 H   0  0  0  0  0  0  0  0  0  0  0  0
   28.6396    3.7654    8.4591 H   0  0  0  0  0  0  0  0  0  0  0  0
   28.7934    2.4322   10.5749 H   0  0  0  0  0  0  0  0  0  0  0  0
   35.3183    3.2489    7.4062 H   0  0  0  0  0  0  0  0  0  0  0  0
   33.9195    2.1268    7.3021 H   0  0  0  0  0  0  0  0  0  0  0  0
   34.6284    2.5324    8.9019 H   0  0  0  0  0  0  0  0  0  0  0  0
   32.5588    5.5768    6.6210 H   0  0  0  0  0  0  0  0  0  0  0  0
   32.8299    3.9457    5.9190 H   0  0  0  0  0  0  0  0  0  0  0  0
   34.2226    5.0438    6.2036 H   0  0  0  0  0  0  0  0  0  0  0  0
   34.2855    4.8990    9.8842 H   0  0  0  0  0  0  0  0  0  0  0  0
   33.5042    6.1506    8.8597 H   0  0  0  0  0  0  0  0  0  0  0  0
   35.1024    5.4766    8.3924 H   0  0  0  0  0  0  0  0  0  0  0  0
   33.8541    5.3165   14.0582 H   0  0  0  0  0  0  0  0  0  0  0  0
   29.4959   11.9805   17.9970 H   0  0  0  0  0  0  0  0  0  0  0  0
   29.4678   12.5410   16.3036 H   0  0  0  0  0  0  0  0  0  0  0  0
   28.1935   10.1664   20.6012 H   0  0  0  0  0  0  0  0  0  0  0  0
   27.7484    8.4294   20.4940 H   0  0  0  0  0  0  0  0  0  0  0  0
   25.6590    9.8675   17.9065 H   0  0  0  0  0  0  0  0  0  0  0  0
   25.9153   10.5269   19.5576 H   0  0  0  0  0  0  0  0  0  0  0  0
   25.6930    8.7602   19.3204 H   0  0  0  0  0  0  0  0  0  0  0  0
  1  2  1  0  0  0  0
  2  3  1  0  0  0  0
  2  4  1  0  0  0  0
  2  5  1  0  0  0  0
  5  6  1  0  0  0  0
  5 36  1  0  0  0  0
  5 39  1  6  0  0  0
  6  7  1  0  0  0  0
  7  8  2  0  0  0  0
  7 12  1  0  0  0  0
  8  9  1  0  0  0  0
  8 35  1  0  0  0  0
  9 10  2  0  0  0  0
  9 34  1  0  0  0  0
 10 11  1  0  0  0  0
 10 40  1  0  0  0  0
 11 12  2  0  0  0  0
 11 13  1  0  0  0  0
 12 41  1  0  0  0  0
 13 14  1  0  0  0  0
 13 42  1  0  0  0  0
 13 43  1  0  0  0  0
 14 15  1  0  0  0  0
 14 19  1  0  0  0  0
 14 44  1  6  0  0  0
 15 16  1  0  0  0  0
 15 33  1  0  0  0  0
 15 45  1  1  0  0  0
 16 17  1  0  0  0  0
 16 21  1  0  0  0  0
 16 46  1  6  0  0  0
 17 18  1  0  0  0  0
 17 47  1  0  0  0  0
 17 48  1  0  0  0  0
 18 19  1  0  0  0  0
 18 20  1  6  0  0  0
 19 49  1  0  0  0  0
 19 50  1  0  0  0  0
 20 51  1  0  0  0  0
 21 22  1  0  0  0  0
 21 52  1  0  0  0  0
 21 53  1  0  0  0  0
 22 23  1  0  0  0  0
 22 54  1  0  0  0  0
 22 55  1  0  0  0  0
 23 24  2  0  0  0  0
 23 28  1  0  0  0  0
 24 25  1  0  0  0  0
 24 56  1  0  0  0  0
 25 26  2  0  0  0  0
 25 29  1  0  0  0  0
 26 27  1  0  0  0  0
 26 57  1  0  0  0  0
 27 28  2  0  0  0  0
 27 58  1  0  0  0  0
 28 59  1  0  0  0  0
 29 30  1  0  0  0  0
 29 31  1  0  0  0  0
 29 32  1  0  0  0  0
 30 60  1  0  0  0  0
 30 61  1  0  0  0  0
 30 62  1  0  0  0  0
 31 63  1  0  0  0  0
 31 64  1  0  0  0  0
 31 65  1  0  0  0  0
 32 66  1  0  0  0  0
 32 67  1  0  0  0  0
 32 68  1  0  0  0  0
 33 69  1  0  0  0  0
 35 70  1  0  0  0  0
 35 71  1  0  0  0  0
 36 37  1  0  0  0  0
 36 72  1  0  0  0  0
 36 73  1  0  0  0  0
 37 38  1  0  0  0  0
 38 74  1  0  0  0  0
 38 75  1  0  0  0  0
 38 76  1  0  0  0  0
M  CHG  1  21   1
M  END
