4lyn_ligand
 OpenBabel08222323353D

 50 52  0  0  1  0  0  0  0  0999 V2000
   28.5820   28.0220   24.8570 C   0  0  0  0  0  0  0  0  0  0  0  0
   29.9390   28.2790   24.9920 C   0  0  0  0  0  0  0  0  0  0  0  0
   27.8110   26.7300   24.5870 C   0  0  0  0  0  0  0  0  0  0  0  0
   27.2000   31.3940   28.1370 C   0  0  0  0  0  0  0  0  0  0  0  0
   28.7200   25.5150   24.7640 C   0  0  0  0  0  0  0  0  0  0  0  0
   27.2760   26.7380   23.1560 C   0  0  0  0  0  0  0  0  0  0  0  0
   26.6410   26.6060   25.5630 C   0  0  0  0  0  0  0  0  0  0  0  0
   26.3150   32.2630   28.6880 C   0  0  0  0  0  0  0  0  0  0  0  0
   25.1140   30.4550   28.9440 C   0  0  0  0  0  0  0  0  0  0  0  0
   30.1290   29.5960   25.3080 N   0  0  0  0  0  0  0  0  0  0  0  0
   28.9070   30.1190   25.3540 C   0  0  0  0  0  0  0  0  0  0  0  0
   27.9220   29.2140   25.0740 O   0  0  0  0  0  0  0  0  0  0  0  0
   28.5420   31.4890   25.7620 C   0  0  0  0  0  0  0  0  0  0  0  0
   28.8380   31.5810   27.5340 S   0  0  0  0  0  0  0  0  0  0  0  0
   25.1460   31.7380   29.1710 N   0  0  0  0  0  0  0  0  0  0  0  0
   23.9480   29.7520   29.1830 N   0  0  0  0  0  0  0  0  0  0  0  0
   23.6780   28.4770   28.7650 C   0  0  0  0  0  0  0  0  0  0  0  0
   24.4640   27.7990   28.1090 O   0  0  0  0  0  0  0  0  0  0  0  0
   22.2830   27.9690   29.1230 C   0  0  1  0  0  0  0  0  0  0  0  0
   21.5900   27.4370   27.8680 C   0  0  0  0  0  0  0  0  0  0  0  0
   22.4160   26.9390   30.2380 C   0  0  0  0  0  0  0  0  0  0  0  0
   22.7290   25.6090   29.9750 C   0  0  0  0  0  0  0  0  0  0  0  0
   22.7570   24.6720   30.9970 C   0  0  0  0  0  0  0  0  0  0  0  0
   22.4900   25.0560   32.2970 C   0  0  0  0  0  0  0  0  0  0  0  0
   22.2160   26.3800   32.5760 C   0  0  0  0  0  0  0  0  0  0  0  0
   22.1780   27.3160   31.5530 C   0  0  0  0  0  0  0  0  0  0  0  0
   26.5230   29.7840   28.1750 S   0  0  0  0  0  0  0  0  0  0  0  0
   30.7322   27.5436   24.8655 H   0  0  0  0  0  0  0  0  0  0  0  0
   28.1476   24.5969   24.5657 H   0  0  0  0  0  0  0  0  0  0  0  0
   29.1047   25.4918   25.7943 H   0  0  0  0  0  0  0  0  0  0  0  0
   29.5622   25.5814   24.0595 H   0  0  0  0  0  0  0  0  0  0  0  0
   26.6191   27.6090   23.0150 H   0  0  0  0  0  0  0  0  0  0  0  0
   26.7059   25.8154   22.9725 H   0  0  0  0  0  0  0  0  0  0  0  0
   28.1177   26.7955   22.4502 H   0  0  0  0  0  0  0  0  0  0  0  0
   27.0231   26.6000   26.5945 H   0  0  0  0  0  0  0  0  0  0  0  0
   26.0982   25.6695   25.3676 H   0  0  0  0  0  0  0  0  0  0  0  0
   25.9599   27.4594   25.4293 H   0  0  0  0  0  0  0  0  0  0  0  0
   26.5251   33.3301   28.7436 H   0  0  0  0  0  0  0  0  0  0  0  0
   27.4818   31.6826   25.5421 H   0  0  0  0  0  0  0  0  0  0  0  0
   29.1665   32.2236   25.2325 H   0  0  0  0  0  0  0  0  0  0  0  0
   23.2367   30.2176   29.7095 H   0  0  0  0  0  0  0  0  0  0  0  0
   21.6857   28.8097   29.5058 H   0  0  0  0  0  0  0  0  0  0  0  0
   21.5330   28.2360   27.1141 H   0  0  0  0  0  0  0  0  0  0  0  0
   20.5742   27.1016   28.1243 H   0  0  0  0  0  0  0  0  0  0  0  0
   22.1643   26.5908   27.4628 H   0  0  0  0  0  0  0  0  0  0  0  0
   22.9535   25.3018   28.9599 H   0  0  0  0  0  0  0  0  0  0  0  0
   22.9888   23.6365   30.7755 H   0  0  0  0  0  0  0  0  0  0  0  0
   22.4956   24.3213   33.0940 H   0  0  0  0  0  0  0  0  0  0  0  0
   22.0299   26.6892   33.5982 H   0  0  0  0  0  0  0  0  0  0  0  0
   21.9602   28.3528   31.7826 H   0  0  0  0  0  0  0  0  0  0  0  0
  1  2  2  0  0  0  0
  1  3  1  0  0  0  0
  2 28  1  0  0  0  0
  3  5  1  0  0  0  0
  3  6  1  0  0  0  0
  3  7  1  0  0  0  0
  4  8  2  0  0  0  0
  4 27  1  0  0  0  0
  5 29  1  0  0  0  0
  5 30  1  0  0  0  0
  5 31  1  0  0  0  0
  6 32  1  0  0  0  0
  6 33  1  0  0  0  0
  6 34  1  0  0  0  0
  7 35  1  0  0  0  0
  7 36  1  0  0  0  0
  7 37  1  0  0  0  0
  8 15  1  0  0  0  0
  8 38  1  0  0  0  0
  9 15  2  0  0  0  0
  9 16  1  0  0  0  0
 10  2  1  0  0  0  0
 11 10  2  0  0  0  0
 11 12  1  0  0  0  0
 12  1  1  0  0  0  0
 13 11  1  0  0  0  0
 13 14  1  0  0  0  0
 13 39  1  0  0  0  0
 13 40  1  0  0  0  0
 14  4  1  0  0  0  0
 16 17  1  0  0  0  0
 16 41  1  0  0  0  0
 17 18  2  0  0  0  0
 17 19  1  0  0  0  0
 19 20  1  0  0  0  0
 19 21  1  0  0  0  0
 19 42  1  1  0  0  0
 20 43  1  0  0  0  0
 20 44  1  0  0  0  0
 20 45  1  0  0  0  0
 21 22  2  0  0  0  0
 21 26  1  0  0  0  0
 22 23  1  0  0  0  0
 22 46  1  0  0  0  0
 23 24  2  0  0  0  0
 23 47  1  0  0  0  0
 24 25  1  0  0  0  0
 24 48  1  0  0  0  0
 25 26  2  0  0  0  0
 25 49  1  0  0  0  0
 26 50  1  0  0  0  0
 27  9  1  0  0  0  0
M  END
