4lys_ligand
 OpenBabel08222323353D

 51 53  0  0  1  0  0  0  0  0999 V2000
    6.9190   54.0140    4.4070 O   0  0  0  0  0  0  0  0  0  0  0  0
    6.3190   52.9510    4.5460 C   0  0  0  0  0  0  0  0  0  0  0  0
    6.1320   52.0800    3.3640 C   0  0  0  0  0  0  0  0  0  0  0  0
    5.8110   52.5710    5.7260 N   0  0  0  0  0  0  0  0  0  0  0  0
    5.1650   51.2900    5.9480 C   0  0  2  0  0  0  0  0  0  0  0  0
    3.8390   51.1530    5.2440 C   0  0  0  0  0  0  0  0  0  0  0  0
    3.2130   52.2960    4.9170 C   0  0  0  0  0  0  0  0  0  0  0  0
    4.9800   51.0260    7.4440 C   0  0  0  0  0  0  0  0  0  0  0  0
    4.3600   49.6620    7.7590 C   0  0  0  0  0  0  0  0  0  0  0  0
    4.7070   48.5800    6.7510 C   0  0  0  0  0  0  0  0  0  0  0  0
    5.4910   47.4970    7.1330 C   0  0  0  0  0  0  0  0  0  0  0  0
    5.8160   46.4940    6.2290 C   0  0  0  0  0  0  0  0  0  0  0  0
    5.3670   46.5710    4.9350 C   0  0  0  0  0  0  0  0  0  0  0  0
    4.5730   47.6270    4.5510 C   0  0  0  0  0  0  0  0  0  0  0  0
    4.1450   47.6790    3.2550 O   0  0  0  0  0  0  0  0  0  0  0  0
    4.7090   48.6710    2.3970 C   0  0  0  0  0  0  0  0  0  0  0  0
    5.6310   45.5580    4.0590 O   0  0  0  0  0  0  0  0  0  0  0  0
    6.6810   45.6610    3.1560 C   0  0  0  0  0  0  0  0  0  0  0  0
    6.5780   45.4050    6.5560 O   0  0  0  0  0  0  0  0  0  0  0  0
    7.1210   45.2290    7.8550 C   0  0  0  0  0  0  0  0  0  0  0  0
    4.2440   48.6430    5.4520 C   0  0  0  0  0  0  0  0  0  0  0  0
    3.3820   49.7870    4.9890 C   0  0  0  0  0  0  0  0  0  0  0  0
    2.2390   49.3840    4.3870 C   0  0  0  0  0  0  0  0  0  0  0  0
    1.1650   50.1400    3.7880 C   0  0  0  0  0  0  0  0  0  0  0  0
    1.0440   51.4650    3.7110 C   0  0  0  0  0  0  0  0  0  0  0  0
    1.9460   52.4870    4.2180 C   0  0  0  0  0  0  0  0  0  0  0  0
    1.6230   53.6540    4.0170 O   0  0  0  0  0  0  0  0  0  0  0  0
   -0.0210   51.9230    3.0840 O   0  0  0  0  0  0  0  0  0  0  0  0
    5.5799   51.1754    3.6588 H   0  0  0  0  0  0  0  0  0  0  0  0
    7.1144   51.7945    2.9598 H   0  0  0  0  0  0  0  0  0  0  0  0
    5.5627   52.6227    2.5950 H   0  0  0  0  0  0  0  0  0  0  0  0
    5.8806   53.2047    6.4964 H   0  0  0  0  0  0  0  0  0  0  0  0
    5.8336   50.5145    5.5461 H   0  0  0  0  0  0  0  0  0  0  0  0
    3.7237   53.2101    5.2161 H   0  0  0  0  0  0  0  0  0  0  0  0
    4.3250   51.8080    7.8557 H   0  0  0  0  0  0  0  0  0  0  0  0
    5.9653   51.0795    7.9300 H   0  0  0  0  0  0  0  0  0  0  0  0
    3.2662   49.7758    7.7819 H   0  0  0  0  0  0  0  0  0  0  0  0
    4.7160   49.3401    8.7488 H   0  0  0  0  0  0  0  0  0  0  0  0
    5.8542   47.4346    8.1524 H   0  0  0  0  0  0  0  0  0  0  0  0
    4.2651   48.5838    1.3943 H   0  0  0  0  0  0  0  0  0  0  0  0
    5.7969   48.5227    2.3305 H   0  0  0  0  0  0  0  0  0  0  0  0
    4.4995   49.6708    2.8050 H   0  0  0  0  0  0  0  0  0  0  0  0
    6.7281   44.7489    2.5429 H   0  0  0  0  0  0  0  0  0  0  0  0
    7.6263   45.7828    3.7051 H   0  0  0  0  0  0  0  0  0  0  0  0
    6.5203   46.5327    2.5047 H   0  0  0  0  0  0  0  0  0  0  0  0
    7.6940   44.2907    7.8888 H   0  0  0  0  0  0  0  0  0  0  0  0
    6.3047   45.1868    8.5911 H   0  0  0  0  0  0  0  0  0  0  0  0
    7.7853   46.0730    8.0922 H   0  0  0  0  0  0  0  0  0  0  0  0
    2.1067   48.3038    4.3477 H   0  0  0  0  0  0  0  0  0  0  0  0
    0.2597   49.8068    4.3166 H   0  0  0  0  0  0  0  0  0  0  0  0
    1.1282   49.7947    2.7442 H   0  0  0  0  0  0  0  0  0  0  0  0
  1  2  2  0  0  0  0
  2  3  1  0  0  0  0
  2  4  1  0  0  0  0
  3 29  1  0  0  0  0
  3 30  1  0  0  0  0
  3 31  1  0  0  0  0
  4  5  1  0  0  0  0
  4 32  1  0  0  0  0
  5  6  1  0  0  0  0
  5  8  1  0  0  0  0
  5 33  1  6  0  0  0
  6  7  2  0  0  0  0
  6 22  1  0  0  0  0
  7 26  1  0  0  0  0
  7 34  1  0  0  0  0
  8  9  1  0  0  0  0
  8 35  1  0  0  0  0
  8 36  1  0  0  0  0
  9 10  1  0  0  0  0
  9 37  1  0  0  0  0
  9 38  1  0  0  0  0
 10 11  2  0  0  0  0
 10 21  1  0  0  0  0
 11 12  1  0  0  0  0
 11 39  1  0  0  0  0
 12 13  2  0  0  0  0
 12 19  1  0  0  0  0
 13 14  1  0  0  0  0
 13 17  1  0  0  0  0
 14 15  1  0  0  0  0
 14 21  2  0  0  0  0
 15 16  1  0  0  0  0
 16 40  1  0  0  0  0
 16 41  1  0  0  0  0
 16 42  1  0  0  0  0
 17 18  1  0  0  0  0
 18 43  1  0  0  0  0
 18 44  1  0  0  0  0
 18 45  1  0  0  0  0
 19 20  1  0  0  0  0
 20 46  1  0  0  0  0
 20 47  1  0  0  0  0
 20 48  1  0  0  0  0
 21 22  1  0  0  0  0
 22 23  2  0  0  0  0
 23 24  1  0  0  0  0
 23 49  1  0  0  0  0
 24 25  1  0  0  0  0
 24 50  1  0  0  0  0
 24 51  1  0  0  0  0
 25 26  1  0  0  0  0
 25 28  2  0  0  0  0
 26 27  2  0  0  0  0
M  END
