4m1d_ligand
 OpenBabel08222323353D

219223  0  0  1  0  0  0  0  0999 V2000
    0.8660   24.9840   71.7810 N   0  3  0  0  0  0  0  0  0  0  0  0
    0.8260   25.0620   70.3280 C   0  0  2  0  0  0  0  0  0  0  0  0
    0.1140   23.8440   69.7290 C   0  0  0  0  0  0  0  0  0  0  0  0
   -0.2230   22.8970   70.4460 O   0  0  0  0  0  0  0  0  0  0  0  0
    2.2440   25.1920   69.7730 C   0  0  0  0  0  0  0  0  0  0  0  0
    3.0860   26.7410   70.2640 S   0  0  0  0  0  0  0  0  0  0  0  0
   -0.1210   23.8720   68.4220 N   0  0  0  0  0  0  0  0  0  0  0  0
   -0.7860   22.7580   67.7420 C   0  0  2  0  0  0  0  0  0  0  0  0
    0.1110   22.1890   66.6620 C   0  0  0  0  0  0  0  0  0  0  0  0
    0.8420   22.9250   65.9970 O   0  0  0  0  0  0  0  0  0  0  0  0
   -2.0930   23.2410   67.1120 C   0  0  0  0  0  0  0  0  0  0  0  0
   -3.0770   23.8100   68.1130 C   0  0  0  0  0  0  0  0  0  0  0  0
   -4.3510   24.2100   67.3990 C   0  0  0  0  0  0  0  0  0  0  0  0
   -5.3600   24.7460   68.3100 N   0  0  0  0  0  0  0  0  0  0  0  0
   -6.5780   25.1040   67.9220 C   0  0  0  0  0  3  0  0  0  0  0  0
   -6.9330   24.9690   66.6470 N   0  0  0  0  0  0  0  0  0  0  0  0
   -7.4440   25.5910   68.8020 N   0  0  0  0  0  0  0  0  0  0  0  0
    0.0800   20.8670   66.5070 N   0  0  0  0  0  0  0  0  0  0  0  0
    0.8210   20.2210   65.4550 C   0  0  2  0  0  0  0  0  0  0  0  0
   -0.2070   19.5950   64.5210 C   0  0  0  0  0  0  0  0  0  0  0  0
   -1.1110   18.9100   64.9730 O   0  0  0  0  0  0  0  0  0  0  0  0
    1.7690   19.1570   66.0380 C   0  0  2  0  0  0  0  0  0  0  0  0
    2.8240   19.8300   66.9380 C   0  0  0  0  0  0  0  0  0  0  0  0
    2.4270   18.3420   64.9280 C   0  0  0  0  0  0  0  0  0  0  0  0
    3.8170   18.8460   67.5530 C   0  0  0  0  0  0  0  0  0  0  0  0
   -0.0610   19.8590   63.2300 N   0  0  0  0  0  0  0  0  0  0  0  0
   -1.0270   19.4600   62.2230 C   0  0  2  0  0  0  0  0  0  0  0  0
   -0.3990   18.4410   61.3010 C   0  0  0  0  0  0  0  0  0  0  0  0
    0.6330   18.7040   60.6640 O   0  0  0  0  0  0  0  0  0  0  0  0
   -1.4960   20.6760   61.4130 C   0  0  0  0  0  0  0  0  0  0  0  0
   -2.1240   21.7370   62.2570 C   0  0  0  0  0  0  0  0  0  0  0  0
   -3.4540   21.7090   62.6160 N   0  0  0  0  0  0  0  0  0  0  0  0
   -1.5960   22.8430   62.8310 C   0  0  0  0  0  0  0  0  0  0  0  0
   -3.7260   22.7710   63.3590 C   0  0  0  0  0  0  0  0  0  0  0  0
   -2.6120   23.4680   63.5170 N   0  0  0  0  0  0  0  0  0  0  0  0
   -1.0230   17.2670   61.2380 N   0  0  0  0  0  0  0  0  0  0  0  0
   -0.4780   16.1540   60.4700 C   0  0  2  0  0  0  0  0  0  0  0  0
   -1.4250   15.8770   59.3020 C   0  0  0  0  0  0  0  0  0  0  0  0
   -2.4120   15.1640   59.4390 O   0  0  0  0  0  0  0  0  0  0  0  0
   -0.3260   14.8780   61.3460 C   0  0  2  0  0  0  0  0  0  0  0  0
    0.4870   15.1540   62.6200 C   0  0  0  0  0  0  0  0  0  0  0  0
    0.2480   13.6840   60.5350 C   0  0  0  0  0  0  0  0  0  0  0  0
    1.8970   15.5850   62.3630 C   0  0  0  0  0  0  0  0  0  0  0  0
   -1.1260   16.4700   58.1510 N   0  0  0  0  0  0  0  0  0  0  0  0
   -1.9670   16.3190   56.9790 C   0  0  0  0  0  0  0  0  0  0  0  0
   -1.5300   17.2870   55.8950 C   0  0  0  0  0  0  0  0  0  0  0  0
   -0.7480   18.2070   56.1450 O   0  0  0  0  0  0  0  0  0  0  0  0
   -2.0380   17.0840   54.6770 N   0  0  0  0  0  0  0  0  0  0  0  0
   -1.5180   17.7980   53.5110 C   0  0  2  0  0  0  0  0  0  0  0  0
   -1.9670   19.2460   53.4980 C   0  0  0  0  0  0  0  0  0  0  0  0
   -3.1290   19.5240   53.7890 O   0  0  0  0  0  0  0  0  0  0  0  0
   -2.1210   17.0310   52.3270 C   0  0  0  0  0  0  0  0  0  0  0  0
   -3.3720   16.3840   52.8860 C   0  0  0  0  0  0  0  0  0  0  0  0
   -3.0710   16.0820   54.3340 C   0  0  0  0  0  0  0  0  0  0  0  0
   -1.0510   20.1480   53.1660 N   0  0  0  0  0  0  0  0  0  0  0  0
   -1.4090   21.5470   53.0070 C   0  0  0  0  0  0  0  0  0  0  0  0
   -1.4590   22.3220   54.3020 C   0  0  0  0  0  0  0  0  0  0  0  0
   -1.5730   23.5500   54.2660 O   0  0  0  0  0  0  0  0  0  0  0  0
   -1.3830   21.6300   55.4400 N   0  0  0  0  0  0  0  0  0  0  0  0
   -1.4700   22.2930   56.7460 C   0  0  2  0  0  0  0  0  0  0  0  0
   -0.1180   22.8590   57.1840 C   0  0  0  0  0  0  0  0  0  0  0  0
    0.9200   22.2280   56.9680 O   0  0  0  0  0  0  0  0  0  0  0  0
   -1.9370   21.2850   57.8080 C   0  0  0  0  0  0  0  0  0  0  0  0
   -3.1610   20.4760   57.3700 C   0  0  0  0  0  0  0  0  0  0  0  0
   -4.4240   21.2450   57.5790 C   0  0  0  0  0  0  0  0  0  0  0  0
   -5.5710   20.5360   57.0140 N   0  0  0  0  0  0  0  0  0  0  0  0
   -6.8410   20.8750   57.2330 C   0  0  0  0  0  3  0  0  0  0  0  0
   -7.1390   21.9190   58.0430 N   0  0  0  0  0  0  0  0  0  0  0  0
   -7.8110   20.1570   56.6700 N   0  0  0  0  0  0  0  0  0  0  0  0
   -0.1130   24.0330   57.8150 N   0  0  0  0  0  0  0  0  0  0  0  0
    1.1090   24.4750   58.4830 C   0  0  2  0  0  0  0  0  0  0  0  0
    1.4160   23.4480   59.5720 C   0  0  0  0  0  0  0  0  0  0  0  0
    0.5440   23.0850   60.3500 O   0  0  0  0  0  0  0  0  0  0  0  0
    0.9350   25.8730   59.0970 C   0  0  0  0  0  0  0  0  0  0  0  0
    2.6570   22.9870   59.6220 N   0  0  0  0  0  0  0  0  0  0  0  0
    3.0310   21.8870   60.4940 C   0  0  2  0  0  0  0  0  0  0  0  0
    2.8350   22.2550   61.9800 C   0  0  0  0  0  0  0  0  0  0  0  0
    2.3160   21.4570   62.7630 O   0  0  0  0  0  0  0  0  0  0  0  0
    4.4820   21.4960   60.1700 C   0  0  0  0  0  0  0  0  0  0  0  0
    4.9560   20.2200   60.7970 C   0  0  0  0  0  0  0  0  0  0  0  0
    4.0720   19.2950   61.3320 C   0  0  0  0  0  0  0  0  0  0  0  0
    6.3150   19.9390   60.8290 C   0  0  0  0  0  0  0  0  0  0  0  0
    4.5390   18.1260   61.9050 C   0  0  0  0  0  0  0  0  0  0  0  0
    6.7890   18.7640   61.3990 C   0  0  0  0  0  0  0  0  0  0  0  0
    5.8890   17.8580   61.9370 C   0  0  0  0  0  0  0  0  0  0  0  0
    3.2530   23.4620   62.3660 N   0  0  0  0  0  0  0  0  0  0  0  0
    3.1190   23.9380   63.7460 C   0  0  2  0  0  0  0  0  0  0  0  0
    2.4410   25.2920   63.7350 C   0  0  0  0  0  0  0  0  0  0  0  0
    2.8240   26.1680   62.9460 O   0  0  0  0  0  0  0  0  0  0  0  0
    4.4760   24.1980   64.3570 C   0  0  0  0  0  0  0  0  0  0  0  0
    5.1560   22.9990   64.9240 C   0  0  0  0  0  0  0  0  0  0  0  0
    5.5450   21.9520   64.1000 C   0  0  0  0  0  0  0  0  0  0  0  0
    5.4400   22.9190   66.2760 C   0  0  0  0  0  0  0  0  0  0  0  0
    6.2100   20.8590   64.6140 C   0  0  0  0  0  0  0  0  0  0  0  0
    6.1110   21.8190   66.8060 C   0  0  0  0  0  0  0  0  0  0  0  0
    6.4820   20.7900   65.9610 C   0  0  0  0  0  0  0  0  0  0  0  0
    7.1400   19.6850   66.4610 O   0  0  0  0  0  0  0  0  0  0  0  0
    1.4730   25.4780   64.6290 N   0  0  0  0  0  0  0  0  0  0  0  0
    0.8540   26.7950   64.7920 C   0  0  2  0  0  0  0  0  0  0  0  0
    0.8120   27.1410   66.2710 C   0  0  0  0  0  0  0  0  0  0  0  0
    0.7680   26.2570   67.1270 O   0  0  0  0  0  0  0  0  0  0  0  0
   -0.5780   26.8640   64.2220 C   0  0  2  0  0  0  0  0  0  0  0  0
   -1.4350   25.9400   64.9130 O   0  0  0  0  0  0  0  0  0  0  0  0
   -0.6020   26.5940   62.7120 C   0  0  0  0  0  0  0  0  0  0  0  0
    0.8510   28.4300   66.5770 N   0  0  0  0  0  0  0  0  0  0  0  0
    0.7520   28.8710   67.9590 C   0  0  2  0  0  0  0  0  0  0  0  0
   -0.2200   30.0390   68.0340 C   0  0  0  0  0  0  0  0  0  0  0  0
   -1.2550   30.0790   67.3490 O   0  5  0  0  0  0  0  0  0  0  0  0
    2.1190   29.2970   68.5030 C   0  0  0  0  0  0  0  0  0  0  0  0
    3.3380   27.9820   68.6530 S   0  0  0  0  0  0  0  0  0  0  0  0
    0.0270   30.9700   68.7900 O   0  0  0  0  0  0  0  0  0  0  0  0
    1.3384   25.7952   72.1481 H   0  0  0  0  0  0  0  0  0  0  0  0
    1.3620   24.1518   72.0593 H   0  0  0  0  0  0  0  0  0  0  0  0
   -0.0746   24.9510   72.1418 H   0  0  0  0  0  0  0  0  0  0  0  0
    0.2600   25.9620   70.0459 H   0  0  0  0  0  0  0  0  0  0  0  0
    2.1917   25.1581   68.6748 H   0  0  0  0  0  0  0  0  0  0  0  0
    2.8393   24.3422   70.1382 H   0  0  0  0  0  0  0  0  0  0  0  0
    0.1621   24.6706   67.8909 H   0  0  0  0  0  0  0  0  0  0  0  0
   -1.0080   21.9706   68.4773 H   0  0  0  0  0  0  0  0  0  0  0  0
   -2.5686   22.3898   66.6028 H   0  0  0  0  0  0  0  0  0  0  0  0
   -1.8555   24.0228   66.3755 H   0  0  0  0  0  0  0  0  0  0  0  0
   -2.6364   24.6932   68.5986 H   0  0  0  0  0  0  0  0  0  0  0  0
   -3.3067   23.0496   68.8739 H   0  0  0  0  0  0  0  0  0  0  0  0
   -4.7658   23.3244   66.8953 H   0  0  0  0  0  0  0  0  0  0  0  0
   -4.1089   24.9782   66.6498 H   0  0  0  0  0  0  0  0  0  0  0  0
   -5.1134   24.8515   69.3045 H   0  0  0  0  0  0  0  0  0  0  0  0
   -7.8774   25.2460   66.3433 H   0  0  0  0  0  0  0  0  0  0  0  0
   -6.2634   24.5875   65.9636 H   0  0  0  0  0  0  0  0  0  0  0  0
   -7.1707   25.6961   69.7895 H   0  0  0  0  0  0  0  0  0  0  0  0
   -8.3894   25.8638   68.4974 H   0  0  0  0  0  0  0  0  0  0  0  0
   -0.4682   20.3123   67.1330 H   0  0  0  0  0  0  0  0  0  0  0  0
    1.4158   20.9655   64.9056 H   0  0  0  0  0  0  0  0  0  0  0  0
    1.1757   18.4693   66.6585 H   0  0  0  0  0  0  0  0  0  0  0  0
    2.3032   20.3541   67.7529 H   0  0  0  0  0  0  0  0  0  0  0  0
    3.3845   20.5579   66.3330 H   0  0  0  0  0  0  0  0  0  0  0  0
    1.6493   17.8759   64.3051 H   0  0  0  0  0  0  0  0  0  0  0  0
    3.0585   17.5590   65.3731 H   0  0  0  0  0  0  0  0  0  0  0  0
    3.0474   19.0037   64.3057 H   0  0  0  0  0  0  0  0  0  0  0  0
    4.5362   19.3942   68.1793 H   0  0  0  0  0  0  0  0  0  0  0  0
    4.3557   18.3195   66.7514 H   0  0  0  0  0  0  0  0  0  0  0  0
    3.2744   18.1157   68.1713 H   0  0  0  0  0  0  0  0  0  0  0  0
    0.7545   20.3574   62.9357 H   0  0  0  0  0  0  0  0  0  0  0  0
   -1.8969   19.0073   62.7214 H   0  0  0  0  0  0  0  0  0  0  0  0
   -2.2333   20.3382   60.6698 H   0  0  0  0  0  0  0  0  0  0  0  0
   -0.6266   21.1088   60.8965 H   0  0  0  0  0  0  0  0  0  0  0  0
   -0.5614   23.1758   62.7628 H   0  0  0  0  0  0  0  0  0  0  0  0
   -4.7012   23.0274   63.7703 H   0  0  0  0  0  0  0  0  0  0  0  0
   -2.5206   24.3360   64.0639 H   0  0  0  0  0  0  0  0  0  0  0  0
   -1.8857   17.1455   61.7289 H   0  0  0  0  0  0  0  0  0  0  0  0
    0.5115   16.4350   60.0802 H   0  0  0  0  0  0  0  0  0  0  0  0
   -1.3370   14.5884   61.6684 H   0  0  0  0  0  0  0  0  0  0  0  0
    0.5113   14.2329   63.2208 H   0  0  0  0  0  0  0  0  0  0  0  0
   -0.0192   15.9487   63.1876 H   0  0  0  0  0  0  0  0  0  0  0  0
   -0.3639   13.5241   59.6350 H   0  0  0  0  0  0  0  0  0  0  0  0
    0.2304   12.7765   61.1563 H   0  0  0  0  0  0  0  0  0  0  0  0
    1.2840   13.9059   60.2393 H   0  0  0  0  0  0  0  0  0  0  0  0
    2.4070   15.7612   63.3216 H   0  0  0  0  0  0  0  0  0  0  0  0
    1.8949   16.5132   61.7727 H   0  0  0  0  0  0  0  0  0  0  0  0
    2.4254   14.7974   61.8059 H   0  0  0  0  0  0  0  0  0  0  0  0
   -0.3020   17.0335   58.0915 H   0  0  0  0  0  0  0  0  0  0  0  0
   -3.0122   16.5264   57.2521 H   0  0  0  0  0  0  0  0  0  0  0  0
   -1.8840   15.2890   56.6019 H   0  0  0  0  0  0  0  0  0  0  0  0
   -0.4190   17.7575   53.4869 H   0  0  0  0  0  0  0  0  0  0  0  0
   -1.4191   16.2669   51.9616 H   0  0  0  0  0  0  0  0  0  0  0  0
   -2.3734   17.7192   51.5069 H   0  0  0  0  0  0  0  0  0  0  0  0
   -3.5988   15.4559   52.3409 H   0  0  0  0  0  0  0  0  0  0  0  0
   -4.2261   17.0728   52.8086 H   0  0  0  0  0  0  0  0  0  0  0  0
   -3.9675   16.2091   54.9586 H   0  0  0  0  0  0  0  0  0  0  0  0
   -2.6838   15.0592   54.4520 H   0  0  0  0  0  0  0  0  0  0  0  0
   -0.1037   19.8611   53.0237 H   0  0  0  0  0  0  0  0  0  0  0  0
   -2.4015   21.5981   52.5354 H   0  0  0  0  0  0  0  0  0  0  0  0
   -0.6656   22.0211   52.3493 H   0  0  0  0  0  0  0  0  0  0  0  0
   -1.2641   20.6378   55.4021 H   0  0  0  0  0  0  0  0  0  0  0  0
   -2.1975   23.1152   56.6772 H   0  0  0  0  0  0  0  0  0  0  0  0
   -2.1913   21.8356   58.7257 H   0  0  0  0  0  0  0  0  0  0  0  0
   -1.1122   20.5875   58.0155 H   0  0  0  0  0  0  0  0  0  0  0  0
   -3.2057   19.5474   57.9579 H   0  0  0  0  0  0  0  0  0  0  0  0
   -3.0642   20.2297   56.3023 H   0  0  0  0  0  0  0  0  0  0  0  0
   -4.3322   22.2264   57.0908 H   0  0  0  0  0  0  0  0  0  0  0  0
   -4.5846   21.3858   58.6580 H   0  0  0  0  0  0  0  0  0  0  0  0
   -5.3858   19.7235   56.4087 H   0  0  0  0  0  0  0  0  0  0  0  0
   -8.1221   22.1775   58.2094 H   0  0  0  0  0  0  0  0  0  0  0  0
   -6.3825   22.4544   58.4925 H   0  0  0  0  0  0  0  0  0  0  0  0
   -7.5750   19.3648   56.0554 H   0  0  0  0  0  0  0  0  0  0  0  0
   -8.7973   20.3938   56.8491 H   0  0  0  0  0  0  0  0  0  0  0  0
   -0.9342   24.6034   57.8310 H   0  0  0  0  0  0  0  0  0  0  0  0
    1.9352   24.5055   57.7574 H   0  0  0  0  0  0  0  0  0  0  0  0
    1.8702   26.1755   59.5909 H   0  0  0  0  0  0  0  0  0  0  0  0
    0.1208   25.8501   59.8363 H   0  0  0  0  0  0  0  0  0  0  0  0
    0.6896   26.5941   58.3034 H   0  0  0  0  0  0  0  0  0  0  0  0
    3.3556   23.4079   59.0434 H   0  0  0  0  0  0  0  0  0  0  0  0
    2.3819   21.0268   60.2732 H   0  0  0  0  0  0  0  0  0  0  0  0
    5.1382   22.3086   60.5151 H   0  0  0  0  0  0  0  0  0  0  0  0
    4.5704   21.3917   59.0785 H   0  0  0  0  0  0  0  0  0  0  0  0
    3.0061   19.4898   61.3008 H   0  0  0  0  0  0  0  0  0  0  0  0
    7.0168   20.6468   60.4029 H   0  0  0  0  0  0  0  0  0  0  0  0
    3.8383   17.4171   62.3311 H   0  0  0  0  0  0  0  0  0  0  0  0
    7.8530   18.5579   61.4227 H   0  0  0  0  0  0  0  0  0  0  0  0
    6.2481   16.9377   62.3833 H   0  0  0  0  0  0  0  0  0  0  0  0
    3.6737   24.0648   61.6880 H   0  0  0  0  0  0  0  0  0  0  0  0
    2.5508   23.2102   64.3438 H   0  0  0  0  0  0  0  0  0  0  0  0
    4.3500   24.9324   65.1662 H   0  0  0  0  0  0  0  0  0  0  0  0
    5.1256   24.6204   63.5763 H   0  0  0  0  0  0  0  0  0  0  0  0
    5.3233   21.9941   63.0397 H   0  0  0  0  0  0  0  0  0  0  0  0
    5.1354   23.7253   66.9334 H   0  0  0  0  0  0  0  0  0  0  0  0
    6.5185   20.0540   63.9569 H   0  0  0  0  0  0  0  0  0  0  0  0
    6.3386   21.7709   67.8647 H   0  0  0  0  0  0  0  0  0  0  0  0
    7.9572   19.9585   66.8608 H   0  0  0  0  0  0  0  0  0  0  0  0
    1.1658   24.7122   65.1940 H   0  0  0  0  0  0  0  0  0  0  0  0
    1.4728   27.5361   64.2649 H   0  0  0  0  0  0  0  0  0  0  0  0
   -0.9619   27.8810   64.3904 H   0  0  0  0  0  0  0  0  0  0  0  0
   -1.4573   26.1607   65.8367 H   0  0  0  0  0  0  0  0  0  0  0  0
   -1.6375   26.6522   62.3456 H   0  0  0  0  0  0  0  0  0  0  0  0
   -0.1983   25.5904   62.5125 H   0  0  0  0  0  0  0  0  0  0  0  0
    0.0125   27.3458   62.1952 H   0  0  0  0  0  0  0  0  0  0  0  0
    0.9497   29.1077   65.8483 H   0  0  0  0  0  0  0  0  0  0  0  0
    0.3699   28.0417   68.5723 H   0  0  0  0  0  0  0  0  0  0  0  0
    1.9656   29.7322   69.5015 H   0  0  0  0  0  0  0  0  0  0  0  0
    2.5285   30.0630   67.8281 H   0  0  0  0  0  0  0  0  0  0  0  0
  1  2  1  0  0  0  0
  1112  1  0  0  0  0
  1113  1  0  0  0  0
  1114  1  0  0  0  0
  2  3  1  0  0  0  0
  2  5  1  0  0  0  0
  2115  1  6  0  0  0
  3  4  2  0  0  0  0
  3  7  1  0  0  0  0
  5  6  1  0  0  0  0
  5116  1  0  0  0  0
  5117  1  0  0  0  0
  6110  1  0  0  0  0
  7  8  1  0  0  0  0
  7118  1  0  0  0  0
  8  9  1  0  0  0  0
  8 11  1  0  0  0  0
  8119  1  1  0  0  0
  9 10  2  0  0  0  0
  9 18  1  0  0  0  0
 11 12  1  0  0  0  0
 11120  1  0  0  0  0
 11121  1  0  0  0  0
 12 13  1  0  0  0  0
 12122  1  0  0  0  0
 12123  1  0  0  0  0
 13 14  1  0  0  0  0
 13124  1  0  0  0  0
 13125  1  0  0  0  0
 14 15  1  0  0  0  0
 14126  1  0  0  0  0
 15 16  1  0  0  0  0
 15 17  1  0  0  0  0
 16127  1  0  0  0  0
 16128  1  0  0  0  0
 17129  1  0  0  0  0
 17130  1  0  0  0  0
 18 19  1  0  0  0  0
 18131  1  0  0  0  0
 19 20  1  0  0  0  0
 19 22  1  0  0  0  0
 19132  1  6  0  0  0
 20 21  2  0  0  0  0
 20 26  1  0  0  0  0
 22 23  1  0  0  0  0
 22 24  1  0  0  0  0
 22133  1  1  0  0  0
 23 25  1  0  0  0  0
 23134  1  0  0  0  0
 23135  1  0  0  0  0
 24136  1  0  0  0  0
 24137  1  0  0  0  0
 24138  1  0  0  0  0
 25139  1  0  0  0  0
 25140  1  0  0  0  0
 25141  1  0  0  0  0
 26 27  1  0  0  0  0
 26142  1  0  0  0  0
 27 28  1  0  0  0  0
 27 30  1  0  0  0  0
 27143  1  1  0  0  0
 28 29  2  0  0  0  0
 28 36  1  0  0  0  0
 30 31  1  0  0  0  0
 30144  1  0  0  0  0
 30145  1  0  0  0  0
 31 32  1  0  0  0  0
 31 33  2  0  0  0  0
 32 34  2  0  0  0  0
 33 35  1  0  0  0  0
 33146  1  0  0  0  0
 34 35  1  0  0  0  0
 34147  1  0  0  0  0
 35148  1  0  0  0  0
 36 37  1  0  0  0  0
 36149  1  0  0  0  0
 37 38  1  0  0  0  0
 37 40  1  0  0  0  0
 37150  1  6  0  0  0
 38 39  2  0  0  0  0
 38 44  1  0  0  0  0
 40 41  1  0  0  0  0
 40 42  1  0  0  0  0
 40151  1  1  0  0  0
 41 43  1  0  0  0  0
 41152  1  0  0  0  0
 41153  1  0  0  0  0
 42154  1  0  0  0  0
 42155  1  0  0  0  0
 42156  1  0  0  0  0
 43157  1  0  0  0  0
 43158  1  0  0  0  0
 43159  1  0  0  0  0
 44 45  1  0  0  0  0
 44160  1  0  0  0  0
 45 46  1  0  0  0  0
 45161  1  0  0  0  0
 45162  1  0  0  0  0
 46 47  2  0  0  0  0
 46 48  1  0  0  0  0
 48 49  1  0  0  0  0
 48 54  1  0  0  0  0
 49 50  1  0  0  0  0
 49 52  1  0  0  0  0
 49163  1  6  0  0  0
 50 51  2  0  0  0  0
 50 55  1  0  0  0  0
 52 53  1  0  0  0  0
 52164  1  0  0  0  0
 52165  1  0  0  0  0
 53 54  1  0  0  0  0
 53166  1  0  0  0  0
 53167  1  0  0  0  0
 54168  1  0  0  0  0
 54169  1  0  0  0  0
 55 56  1  0  0  0  0
 55170  1  0  0  0  0
 56 57  1  0  0  0  0
 56171  1  0  0  0  0
 56172  1  0  0  0  0
 57 58  2  0  0  0  0
 57 59  1  0  0  0  0
 59 60  1  0  0  0  0
 59173  1  0  0  0  0
 60 61  1  0  0  0  0
 60 63  1  0  0  0  0
 60174  1  6  0  0  0
 61 62  2  0  0  0  0
 61 70  1  0  0  0  0
 63 64  1  0  0  0  0
 63175  1  0  0  0  0
 63176  1  0  0  0  0
 64 65  1  0  0  0  0
 64177  1  0  0  0  0
 64178  1  0  0  0  0
 65 66  1  0  0  0  0
 65179  1  0  0  0  0
 65180  1  0  0  0  0
 66 67  1  0  0  0  0
 66181  1  0  0  0  0
 67 68  1  0  0  0  0
 67 69  1  0  0  0  0
 68182  1  0  0  0  0
 68183  1  0  0  0  0
 69184  1  0  0  0  0
 69185  1  0  0  0  0
 70 71  1  0  0  0  0
 70186  1  0  0  0  0
 71 72  1  0  0  0  0
 71 74  1  0  0  0  0
 71187  1  6  0  0  0
 72 73  2  0  0  0  0
 72 75  1  0  0  0  0
 74188  1  0  0  0  0
 74189  1  0  0  0  0
 74190  1  0  0  0  0
 75 76  1  0  0  0  0
 75191  1  0  0  0  0
 76 77  1  0  0  0  0
 76 79  1  0  0  0  0
 76192  1  6  0  0  0
 77 78  2  0  0  0  0
 77 86  1  0  0  0  0
 79 80  1  0  0  0  0
 79193  1  0  0  0  0
 79194  1  0  0  0  0
 80 81  2  0  0  0  0
 80 82  1  0  0  0  0
 81 83  1  0  0  0  0
 81195  1  0  0  0  0
 82 84  2  0  0  0  0
 82196  1  0  0  0  0
 83 85  2  0  0  0  0
 83197  1  0  0  0  0
 84 85  1  0  0  0  0
 84198  1  0  0  0  0
 85199  1  0  0  0  0
 86 87  1  0  0  0  0
 86200  1  0  0  0  0
 87 88  1  0  0  0  0
 87 90  1  0  0  0  0
 87201  1  1  0  0  0
 88 89  2  0  0  0  0
 88 98  1  0  0  0  0
 90 91  1  0  0  0  0
 90202  1  0  0  0  0
 90203  1  0  0  0  0
 91 92  2  0  0  0  0
 91 93  1  0  0  0  0
 92 94  1  0  0  0  0
 92204  1  0  0  0  0
 93 95  2  0  0  0  0
 93205  1  0  0  0  0
 94 96  2  0  0  0  0
 94206  1  0  0  0  0
 95 96  1  0  0  0  0
 95207  1  0  0  0  0
 96 97  1  0  0  0  0
 97208  1  0  0  0  0
 98 99  1  0  0  0  0
 98209  1  0  0  0  0
 99100  1  0  0  0  0
 99102  1  0  0  0  0
 99210  1  6  0  0  0
100101  2  0  0  0  0
100105  1  0  0  0  0
102103  1  0  0  0  0
102104  1  0  0  0  0
102211  1  1  0  0  0
103212  1  0  0  0  0
104213  1  0  0  0  0
104214  1  0  0  0  0
104215  1  0  0  0  0
105106  1  0  0  0  0
105216  1  0  0  0  0
106107  1  0  0  0  0
106109  1  0  0  0  0
106217  1  1  0  0  0
107108  1  0  0  0  0
107111  2  0  0  0  0
109110  1  0  0  0  0
109218  1  0  0  0  0
109219  1  0  0  0  0
M  CHG  2   1   1 108  -1
M  END
