4m3d_ligand
 OpenBabel08222323353D

 45 46  0  0  0  0  0  0  0  0999 V2000
   27.4340   -2.5410   -5.2470 O   0  0  0  0  0  0  0  0  0  0  0  0
   26.3100   -3.4180   -4.9850 S   0  0  0  0  0  0  0  0  0  0  0  0
   25.9110   -4.1490   -6.1800 O   0  0  0  0  0  0  0  0  0  0  0  0
   25.0290   -2.5640   -4.4750 C   0  0  0  0  0  0  0  0  0  0  0  0
   23.7440   -2.8120   -4.9940 C   0  0  0  0  0  0  0  0  0  0  0  0
   22.6420   -2.0820   -4.5220 C   0  0  0  0  0  0  0  0  0  0  0  0
   22.7860   -1.1000   -3.5460 C   0  0  0  0  0  0  0  0  0  0  0  0
   24.0700   -0.8580   -3.0370 C   0  0  0  0  0  0  0  0  0  0  0  0
   25.1900   -1.5730   -3.4910 C   0  0  0  0  0  0  0  0  0  0  0  0
   26.7680   -4.4500   -3.8780 N   0  0  0  0  0  0  0  0  0  0  0  0
   25.8330   -5.5470   -3.6230 C   0  0  0  0  0  0  0  0  0  0  0  0
   26.2540   -6.9080   -4.1040 C   0  0  0  0  0  0  0  0  0  0  0  0
   26.5550   -7.9980   -4.4570 C   0  0  0  0  0  0  0  0  0  0  0  0
   26.8590   -9.2090   -4.8560 C   0  0  0  0  0  0  0  0  0  0  0  0
   27.2690  -10.1840   -3.9640 C   0  0  0  0  0  0  0  0  0  0  0  0
   27.4990  -11.4770   -4.4450 C   0  0  0  0  0  0  0  0  0  0  0  0
   26.5660   -9.5370   -6.1880 C   0  0  0  0  0  0  0  0  0  0  0  0
   26.7810  -10.7910   -6.6980 C   0  0  0  0  0  0  0  0  0  0  0  0
   27.2610  -11.7730   -5.8260 C   0  0  0  0  0  0  0  0  0  0  0  0
   27.5320  -13.1460   -6.3550 C   0  0  0  0  0  0  0  0  0  0  0  0
   27.4340  -13.3070   -7.5690 O   0  0  0  0  0  0  0  0  0  0  0  0
   27.9260  -14.1330   -5.5150 N   0  0  0  0  0  0  0  0  0  0  0  0
   28.2360  -15.4500   -5.9830 C   0  0  0  0  0  0  0  0  0  0  0  0
   29.6830  -15.4350   -6.5360 C   0  0  0  0  0  0  0  0  0  0  0  0
   30.0760  -16.6270   -7.3910 C   0  0  0  0  0  0  0  0  0  0  0  0
   29.9410  -17.7930   -6.7770 F   0  0  0  0  0  0  0  0  0  0  0  0
   29.3150  -16.6310   -8.4470 F   0  0  0  0  0  0  0  0  0  0  0  0
   31.3210  -16.4820   -7.8020 F   0  0  0  0  0  0  0  0  0  0  0  0
   23.6055   -3.5675   -5.7589 H   0  0  0  0  0  0  0  0  0  0  0  0
   21.6574   -2.2874   -4.9263 H   0  0  0  0  0  0  0  0  0  0  0  0
   21.9300   -0.5384   -3.1896 H   0  0  0  0  0  0  0  0  0  0  0  0
   24.2013   -0.0997   -2.2736 H   0  0  0  0  0  0  0  0  0  0  0  0
   26.1728   -1.3621   -3.0852 H   0  0  0  0  0  0  0  0  0  0  0  0
   27.6346   -4.3597   -3.3871 H   0  0  0  0  0  0  0  0  0  0  0  0
   24.8815   -5.2974   -4.1153 H   0  0  0  0  0  0  0  0  0  0  0  0
   25.6781   -5.6092   -2.5357 H   0  0  0  0  0  0  0  0  0  0  0  0
   27.4090   -9.9507   -2.9147 H   0  0  0  0  0  0  0  0  0  0  0  0
   27.8557  -12.2515   -3.7757 H   0  0  0  0  0  0  0  0  0  0  0  0
   26.1551   -8.7719   -6.8368 H   0  0  0  0  0  0  0  0  0  0  0  0
   26.5858  -11.0136   -7.7408 H   0  0  0  0  0  0  0  0  0  0  0  0
   28.0027  -13.9356   -4.5377 H   0  0  0  0  0  0  0  0  0  0  0  0
   27.5349  -15.7371   -6.7805 H   0  0  0  0  0  0  0  0  0  0  0  0
   28.1613  -16.1680   -5.1530 H   0  0  0  0  0  0  0  0  0  0  0  0
   30.3714  -15.3927   -5.6791 H   0  0  0  0  0  0  0  0  0  0  0  0
   29.8016  -14.5279   -7.1468 H   0  0  0  0  0  0  0  0  0  0  0  0
  1  2  2  0  0  0  0
  2  3  2  0  0  0  0
  2  4  1  0  0  0  0
  2 10  1  0  0  0  0
  4  5  2  0  0  0  0
  4  9  1  0  0  0  0
  5  6  1  0  0  0  0
  5 29  1  0  0  0  0
  6  7  2  0  0  0  0
  6 30  1  0  0  0  0
  7  8  1  0  0  0  0
  7 31  1  0  0  0  0
  8  9  2  0  0  0  0
  8 32  1  0  0  0  0
  9 33  1  0  0  0  0
 10 11  1  0  0  0  0
 10 34  1  0  0  0  0
 11 12  1  0  0  0  0
 11 35  1  0  0  0  0
 11 36  1  0  0  0  0
 12 13  3  0  0  0  0
 13 14  1  0  0  0  0
 14 15  2  0  0  0  0
 14 17  1  0  0  0  0
 15 16  1  0  0  0  0
 15 37  1  0  0  0  0
 16 19  2  0  0  0  0
 16 38  1  0  0  0  0
 17 18  2  0  0  0  0
 17 39  1  0  0  0  0
 18 19  1  0  0  0  0
 18 40  1  0  0  0  0
 19 20  1  0  0  0  0
 20 21  2  0  0  0  0
 20 22  1  0  0  0  0
 22 23  1  0  0  0  0
 22 41  1  0  0  0  0
 23 24  1  0  0  0  0
 23 42  1  0  0  0  0
 23 43  1  0  0  0  0
 24 25  1  0  0  0  0
 24 44  1  0  0  0  0
 24 45  1  0  0  0  0
 25 26  1  0  0  0  0
 25 27  1  0  0  0  0
 25 28  1  0  0  0  0
M  END
