4m3f_ligand
 OpenBabel08222323353D

 41 42  0  0  0  0  0  0  0  0999 V2000
   13.5890   27.7130    0.6320 O   0  0  0  0  0  0  0  0  0  0  0  0
   13.6700   27.8210    2.0630 S   0  0  0  0  0  0  0  0  0  0  0  0
   14.3270   26.6130    2.4110 O   0  0  0  0  0  0  0  0  0  0  0  0
   14.2860   29.2480    2.5060 N   0  0  0  0  0  0  0  0  0  0  0  0
   15.4450   29.5030    3.3180 C   0  0  0  0  0  0  0  0  0  0  0  0
   16.6940   29.7100    2.4380 C   0  0  0  0  0  0  0  0  0  0  0  0
   16.6280   30.7760    1.3670 C   0  0  0  0  0  0  0  0  0  0  0  0
   17.8800   31.6200    1.4200 C   0  0  0  0  0  0  0  0  0  0  0  0
   16.7140   30.1260    0.0190 C   0  0  0  0  0  0  0  0  0  0  0  0
   12.1250   27.6730    2.6900 C   0  0  0  0  0  0  0  0  0  0  0  0
   11.8880   27.8210    4.0590 C   0  0  0  0  0  0  0  0  0  0  0  0
   10.6090   27.6420    4.6750 C   0  0  0  0  0  0  0  0  0  0  0  0
    9.5350   27.3150    3.8270 C   0  0  0  0  0  0  0  0  0  0  0  0
    9.7370   27.1880    2.4740 C   0  0  0  0  0  0  0  0  0  0  0  0
   11.0110   27.3470    1.8860 C   0  0  0  0  0  0  0  0  0  0  0  0
    8.2510   27.1010    4.3460 C   0  0  0  0  0  0  0  0  0  0  0  0
    7.2260   26.7800    3.5110 N   0  0  0  0  0  0  0  0  0  0  0  0
    6.0300   26.6310    4.1380 C   0  0  0  0  0  0  0  0  0  0  0  0
    4.6790   26.2850    3.5300 C   0  0  0  0  0  0  0  0  0  0  0  0
    6.2630   26.7960    5.8350 S   0  0  0  0  0  0  0  0  0  0  0  0
    7.8960   27.1640    5.7180 C   0  0  0  0  0  0  0  0  0  0  0  0
   13.7995   30.0559    2.1733 H   0  0  0  0  0  0  0  0  0  0  0  0
   15.6128   28.6458    3.9866 H   0  0  0  0  0  0  0  0  0  0  0  0
   15.2727   30.4083    3.9186 H   0  0  0  0  0  0  0  0  0  0  0  0
   16.9060   28.7537    1.9376 H   0  0  0  0  0  0  0  0  0  0  0  0
   17.5287   29.9669    3.1068 H   0  0  0  0  0  0  0  0  0  0  0  0
   15.7169   31.3827    1.4757 H   0  0  0  0  0  0  0  0  0  0  0  0
   17.8326   32.3955    0.6413 H   0  0  0  0  0  0  0  0  0  0  0  0
   18.7597   30.9821    1.2491 H   0  0  0  0  0  0  0  0  0  0  0  0
   17.9592   32.0969    2.4081 H   0  0  0  0  0  0  0  0  0  0  0  0
   15.8389   29.4767   -0.1314 H   0  0  0  0  0  0  0  0  0  0  0  0
   17.6322   29.5232   -0.0395 H   0  0  0  0  0  0  0  0  0  0  0  0
   16.7339   30.9011   -0.7613 H   0  0  0  0  0  0  0  0  0  0  0  0
   12.7251   28.0880    4.6939 H   0  0  0  0  0  0  0  0  0  0  0  0
   10.4739   27.7531    5.7448 H   0  0  0  0  0  0  0  0  0  0  0  0
    8.8906   26.9582    1.8369 H   0  0  0  0  0  0  0  0  0  0  0  0
   11.1338   27.2187    0.8166 H   0  0  0  0  0  0  0  0  0  0  0  0
    4.7720   26.2336    2.4351 H   0  0  0  0  0  0  0  0  0  0  0  0
    3.9462   27.0598    3.7997 H   0  0  0  0  0  0  0  0  0  0  0  0
    4.3420   25.3114    3.9154 H   0  0  0  0  0  0  0  0  0  0  0  0
    8.5619   27.4069    6.5447 H   0  0  0  0  0  0  0  0  0  0  0  0
  1  2  2  0  0  0  0
  2  3  2  0  0  0  0
  2  4  1  0  0  0  0
  2 10  1  0  0  0  0
  4  5  1  0  0  0  0
  4 22  1  0  0  0  0
  5  6  1  0  0  0  0
  5 23  1  0  0  0  0
  5 24  1  0  0  0  0
  6  7  1  0  0  0  0
  6 25  1  0  0  0  0
  6 26  1  0  0  0  0
  7  8  1  0  0  0  0
  7  9  1  0  0  0  0
  7 27  1  0  0  0  0
  8 28  1  0  0  0  0
  8 29  1  0  0  0  0
  8 30  1  0  0  0  0
  9 31  1  0  0  0  0
  9 32  1  0  0  0  0
  9 33  1  0  0  0  0
 10 11  2  0  0  0  0
 10 15  1  0  0  0  0
 11 12  1  0  0  0  0
 11 34  1  0  0  0  0
 12 13  2  0  0  0  0
 12 35  1  0  0  0  0
 13 14  1  0  0  0  0
 13 16  1  0  0  0  0
 14 15  2  0  0  0  0
 14 36  1  0  0  0  0
 15 37  1  0  0  0  0
 16 17  1  0  0  0  0
 16 21  2  0  0  0  0
 17 18  2  0  0  0  0
 18 19  1  0  0  0  0
 18 20  1  0  0  0  0
 19 38  1  0  0  0  0
 19 39  1  0  0  0  0
 19 40  1  0  0  0  0
 20 21  1  0  0  0  0
 21 41  1  0  0  0  0
M  END
