4m3m_ligand
 OpenBabel08222323353D

 44 44  0  0  1  0  0  0  0  0999 V2000
  -68.5800   23.3450  141.1490 C   0  0  0  0  0  0  0  0  0  0  0  0
  -68.5300   22.3270  140.5050 O   0  5  0  0  0  0  0  0  0  0  0  0
  -68.0600   23.3590  142.2410 O   0  0  0  0  0  0  0  0  0  0  0  0
  -69.2040   24.4790  140.6920 C   0  0  0  0  0  0  0  0  0  0  0  0
  -68.9800   25.6770  141.4120 C   0  0  0  0  0  0  0  0  0  0  0  0
  -69.6300   26.8660  140.7920 C   0  0  1  0  0  0  0  0  0  0  0  0
  -71.0100   26.4830  140.4270 C   0  0  2  0  0  0  0  0  0  0  0  0
  -71.7410   26.1550  141.6670 N   0  0  0  0  0  0  0  0  0  0  0  0
  -72.5670   25.1290  142.0180 C   0  0  0  0  0  0  0  0  0  0  0  0
  -72.9180   24.2140  141.3220 O   0  0  0  0  0  0  0  0  0  0  0  0
  -73.1030   25.1630  143.4220 C   0  0  0  0  0  0  0  0  0  0  0  0
  -70.9260   25.4690  139.2400 C   0  0  1  0  0  0  0  0  0  0  0  0
  -70.0930   24.3980  139.6240 C   0  0  0  0  0  0  0  0  0  0  0  0
  -72.1560   25.0110  138.8020 O   0  0  0  0  0  0  0  0  0  0  0  0
  -72.4960   25.2390  137.4740 C   0  0  0  0  0  0  0  0  0  0  0  0
  -74.0200   25.1260  137.3630 C   0  0  0  0  0  0  0  0  0  0  0  0
  -71.8500   24.1960  136.6110 C   0  0  0  0  0  0  0  0  0  0  0  0
  -72.2480   22.8340  137.1220 C   0  0  0  0  0  0  0  0  0  0  0  0
  -74.6460   26.3760  137.9710 C   0  0  0  0  0  0  0  0  0  0  0  0
  -69.6150   28.0260  141.6810 N   0  3  0  0  0  0  0  0  0  0  0  0
  -68.3917   25.7249  142.3272 H   0  0  0  0  0  0  0  0  0  0  0  0
  -69.0808   27.1321  139.8768 H   0  0  0  0  0  0  0  0  0  0  0  0
  -71.5140   27.3711  140.0181 H   0  0  0  0  0  0  0  0  0  0  0  0
  -71.6017   26.8218  142.3991 H   0  0  0  0  0  0  0  0  0  0  0  0
  -73.7524   24.2908  143.5877 H   0  0  0  0  0  0  0  0  0  0  0  0
  -73.6832   26.0856  143.5708 H   0  0  0  0  0  0  0  0  0  0  0  0
  -72.2657   25.1374  144.1349 H   0  0  0  0  0  0  0  0  0  0  0  0
  -70.4525   25.9864  138.3926 H   0  0  0  0  0  0  0  0  0  0  0  0
  -70.7646   23.5569  139.8507 H   0  0  0  0  0  0  0  0  0  0  0  0
  -69.4851   24.1540  138.7404 H   0  0  0  0  0  0  0  0  0  0  0  0
  -72.1649   26.2404  137.1617 H   0  0  0  0  0  0  0  0  0  0  0  0
  -74.3663   24.2356  137.9081 H   0  0  0  0  0  0  0  0  0  0  0  0
  -74.3094   25.0438  136.3050 H   0  0  0  0  0  0  0  0  0  0  0  0
  -70.7562   24.3034  136.6560 H   0  0  0  0  0  0  0  0  0  0  0  0
  -72.1877   24.3146  135.5709 H   0  0  0  0  0  0  0  0  0  0  0  0
  -71.7812   22.0575  136.4981 H   0  0  0  0  0  0  0  0  0  0  0  0
  -73.3423   22.7311  137.0777 H   0  0  0  0  0  0  0  0  0  0  0  0
  -71.9108   22.7199  138.1628 H   0  0  0  0  0  0  0  0  0  0  0  0
  -75.7416   26.3096  137.8987 H   0  0  0  0  0  0  0  0  0  0  0  0
  -74.2957   27.2643  137.4249 H   0  0  0  0  0  0  0  0  0  0  0  0
  -74.3525   26.4560  139.0281 H   0  0  0  0  0  0  0  0  0  0  0  0
  -68.6620   28.2611  141.9105 H   0  0  0  0  0  0  0  0  0  0  0  0
  -70.1202   27.8085  142.5257 H   0  0  0  0  0  0  0  0  0  0  0  0
  -70.0523   28.8084  141.2199 H   0  0  0  0  0  0  0  0  0  0  0  0
  1  2  1  0  0  0  0
  1  3  2  0  0  0  0
  1  4  1  0  0  0  0
  4  5  2  0  0  0  0
  4 13  1  0  0  0  0
  5  6  1  0  0  0  0
  5 21  1  0  0  0  0
  6  7  1  0  0  0  0
  6 20  1  0  0  0  0
  6 22  1  6  0  0  0
  7  8  1  0  0  0  0
  7 12  1  0  0  0  0
  7 23  1  6  0  0  0
  8  9  1  0  0  0  0
  8 24  1  0  0  0  0
  9 10  2  0  0  0  0
  9 11  1  0  0  0  0
 11 25  1  0  0  0  0
 11 26  1  0  0  0  0
 11 27  1  0  0  0  0
 12 13  1  0  0  0  0
 12 14  1  0  0  0  0
 12 28  1  6  0  0  0
 13 29  1  0  0  0  0
 13 30  1  0  0  0  0
 14 15  1  0  0  0  0
 15 16  1  0  0  0  0
 15 17  1  0  0  0  0
 15 31  1  0  0  0  0
 16 19  1  0  0  0  0
 16 32  1  0  0  0  0
 16 33  1  0  0  0  0
 17 18  1  0  0  0  0
 17 34  1  0  0  0  0
 17 35  1  0  0  0  0
 18 36  1  0  0  0  0
 18 37  1  0  0  0  0
 18 38  1  0  0  0  0
 19 39  1  0  0  0  0
 19 40  1  0  0  0  0
 19 41  1  0  0  0  0
 20 42  1  0  0  0  0
 20 43  1  0  0  0  0
 20 44  1  0  0  0  0
M  CHG  2   2  -1  20   1
M  END
