4m3q_ligand
 OpenBabel08222323353D

 52 54  0  0  1  0  0  0  0  0999 V2000
  -13.5650   40.8330  -20.6530 C   0  0  0  0  0  0  0  0  0  0  0  0
  -13.3850   41.4410  -19.2660 C   0  0  0  0  0  0  0  0  0  0  0  0
  -13.6080   42.9600  -19.2560 C   0  0  0  0  0  0  0  0  0  0  0  0
  -13.6570   43.5260  -17.8210 C   0  0  0  0  0  0  0  0  0  0  0  0
  -15.0170   43.8910  -17.4330 N   0  0  0  0  0  0  0  0  0  0  0  0
  -15.6720   43.1660  -16.3520 C   0  0  0  0  0  0  0  0  0  0  0  0
  -16.6910   43.6840  -15.6400 N   0  0  0  0  0  0  0  0  0  0  0  0
  -17.2590   42.9440  -14.6410 C   0  0  0  0  0  0  0  0  0  0  0  0
  -16.7900   41.6550  -14.3410 C   0  0  0  0  0  0  0  0  0  0  0  0
  -15.7290   41.1530  -15.1180 C   0  0  0  0  0  0  0  0  0  0  0  0
  -15.1400   39.8380  -14.9410 N   0  0  0  0  0  0  0  0  0  0  0  0
  -13.9580   39.4580  -15.6860 C   0  0  2  0  0  0  0  0  0  0  0  0
  -14.4330   38.6380  -16.8690 C   0  0  0  0  0  0  0  0  0  0  0  0
  -13.2940   37.9680  -17.6060 C   0  0  0  0  0  0  0  0  0  0  0  0
  -12.3940   37.1910  -16.6710 C   0  0  1  0  0  0  0  0  0  0  0  0
  -11.2880   36.7040  -17.4170 O   0  0  0  0  0  0  0  0  0  0  0  0
  -11.8900   38.0510  -15.5310 C   0  0  0  0  0  0  0  0  0  0  0  0
  -13.0290   38.7030  -14.7670 C   0  0  0  0  0  0  0  0  0  0  0  0
  -15.2200   41.9280  -16.0850 N   0  0  0  0  0  0  0  0  0  0  0  0
  -17.3900   40.8810  -13.3160 C   0  0  0  0  0  0  0  0  0  0  0  0
  -18.7600   40.9770  -13.1020 C   0  0  0  0  0  0  0  0  0  0  0  0
  -19.3490   40.2010  -12.1000 C   0  0  0  0  0  0  0  0  0  0  0  0
  -18.5560   39.3510  -11.3430 C   0  0  0  0  0  0  0  0  0  0  0  0
  -17.1890   39.2770  -11.5890 C   0  0  0  0  0  0  0  0  0  0  0  0
  -16.6530   40.0400  -12.5620 N   0  0  0  0  0  0  0  0  0  0  0  0
  -13.3944   39.7475  -20.6024 H   0  0  0  0  0  0  0  0  0  0  0  0
  -12.8428   41.2856  -21.3483 H   0  0  0  0  0  0  0  0  0  0  0  0
  -14.5876   41.0272  -21.0086 H   0  0  0  0  0  0  0  0  0  0  0  0
  -12.3620   41.2325  -18.9195 H   0  0  0  0  0  0  0  0  0  0  0  0
  -14.1069   40.9741  -18.5798 H   0  0  0  0  0  0  0  0  0  0  0  0
  -14.5608   43.1827  -19.7586 H   0  0  0  0  0  0  0  0  0  0  0  0
  -12.7840   43.4438  -19.8009 H   0  0  0  0  0  0  0  0  0  0  0  0
  -13.0186   44.4202  -17.7680 H   0  0  0  0  0  0  0  0  0  0  0  0
  -13.2793   42.7638  -17.1236 H   0  0  0  0  0  0  0  0  0  0  0  0
  -15.5088   44.6543  -17.9193 H   0  0  0  0  0  0  0  0  0  0  0  0
  -18.0835   43.3583  -14.0721 H   0  0  0  0  0  0  0  0  0  0  0  0
  -15.5656   39.1712  -14.2814 H   0  0  0  0  0  0  0  0  0  0  0  0
  -13.4388   40.3550  -16.0544 H   0  0  0  0  0  0  0  0  0  0  0  0
  -14.9630   39.3017  -17.5679 H   0  0  0  0  0  0  0  0  0  0  0  0
  -15.1227   37.8619  -16.5058 H   0  0  0  0  0  0  0  0  0  0  0  0
  -12.6970   38.7396  -18.1141 H   0  0  0  0  0  0  0  0  0  0  0  0
  -13.7118   37.2768  -18.3528 H   0  0  0  0  0  0  0  0  0  0  0  0
  -12.9573   36.3434  -16.2536 H   0  0  0  0  0  0  0  0  0  0  0  0
  -10.7120   36.2128  -16.8431 H   0  0  0  0  0  0  0  0  0  0  0  0
  -11.2396   38.8382  -15.9400 H   0  0  0  0  0  0  0  0  0  0  0  0
  -11.3122   37.4210  -14.8387 H   0  0  0  0  0  0  0  0  0  0  0  0
  -13.6012   37.9219  -14.2450 H   0  0  0  0  0  0  0  0  0  0  0  0
  -12.6089   39.4038  -14.0305 H   0  0  0  0  0  0  0  0  0  0  0  0
  -19.3641   41.6454  -13.7048 H   0  0  0  0  0  0  0  0  0  0  0  0
  -20.4155   40.2627  -11.9161 H   0  0  0  0  0  0  0  0  0  0  0  0
  -19.0008   38.7457  -10.5614 H   0  0  0  0  0  0  0  0  0  0  0  0
  -16.5620   38.6132  -11.0048 H   0  0  0  0  0  0  0  0  0  0  0  0
  1  2  1  0  0  0  0
  1 26  1  0  0  0  0
  1 27  1  0  0  0  0
  1 28  1  0  0  0  0
  2  3  1  0  0  0  0
  2 29  1  0  0  0  0
  2 30  1  0  0  0  0
  3  4  1  0  0  0  0
  3 31  1  0  0  0  0
  3 32  1  0  0  0  0
  4  5  1  0  0  0  0
  4 33  1  0  0  0  0
  4 34  1  0  0  0  0
  5  6  1  0  0  0  0
  5 35  1  0  0  0  0
  6  7  2  0  0  0  0
  6 19  1  0  0  0  0
  7  8  1  0  0  0  0
  8  9  2  0  0  0  0
  8 36  1  0  0  0  0
  9 10  1  0  0  0  0
  9 20  1  0  0  0  0
 10 11  1  0  0  0  0
 10 19  2  0  0  0  0
 11 12  1  0  0  0  0
 11 37  1  0  0  0  0
 12 13  1  0  0  0  0
 12 18  1  0  0  0  0
 12 38  1  6  0  0  0
 13 14  1  0  0  0  0
 13 39  1  0  0  0  0
 13 40  1  0  0  0  0
 14 15  1  0  0  0  0
 14 41  1  0  0  0  0
 14 42  1  0  0  0  0
 15 16  1  0  0  0  0
 15 17  1  0  0  0  0
 15 43  1  1  0  0  0
 16 44  1  0  0  0  0
 17 18  1  0  0  0  0
 17 45  1  0  0  0  0
 17 46  1  0  0  0  0
 18 47  1  0  0  0  0
 18 48  1  0  0  0  0
 20 21  2  0  0  0  0
 20 25  1  0  0  0  0
 21 22  1  0  0  0  0
 21 49  1  0  0  0  0
 22 23  2  0  0  0  0
 22 50  1  0  0  0  0
 23 24  1  0  0  0  0
 23 51  1  0  0  0  0
 24 25  2  0  0  0  0
 24 52  1  0  0  0  0
M  END
