4m5l_ligand
 OpenBabel08222323353D

 35 37  0  0  0  0  0  0  0  0999 V2000
   54.2080   11.3910   34.9340 O   0  0  0  0  0  0  0  0  0  0  0  0
   54.6960   12.3860   34.4330 C   0  0  0  0  0  0  0  0  0  0  0  0
   53.9430   13.6830   34.3740 C   0  0  0  0  0  0  0  0  0  0  0  0
   52.5510   13.8260   34.4770 C   0  0  0  0  0  0  0  0  0  0  0  0
   51.5830   12.6790   34.6590 C   0  0  0  0  0  0  0  0  0  0  0  0
   51.9730   15.1020   34.4070 C   0  0  0  0  0  0  0  0  0  0  0  0
   52.7580   16.2340   34.2370 C   0  0  0  0  0  0  0  0  0  0  0  0
   54.1340   16.0990   34.1370 C   0  0  0  0  0  0  0  0  0  0  0  0
   54.7170   14.8380   34.2040 C   0  0  0  0  0  0  0  0  0  0  0  0
   56.0870   12.3050   33.8830 C   0  0  0  0  0  0  0  0  0  0  0  0
   57.1240   10.8320   33.9790 S   0  0  0  0  0  0  0  0  0  0  0  0
   56.1330    9.5640   33.3560 C   0  0  0  0  0  0  0  0  0  0  0  0
   56.0830    8.2880   33.7950 N   0  0  0  0  0  0  0  0  0  0  0  0
   55.1400    7.6780   32.9970 C   0  0  0  0  0  0  0  0  0  0  0  0
   54.6200    6.3670   32.9280 C   0  0  0  0  0  0  0  0  0  0  0  0
   55.0530    5.3820   33.7820 O   0  0  0  0  0  0  0  0  0  0  0  0
   53.6710    6.1110   32.0290 N   0  0  0  0  0  0  0  0  0  0  0  0
   53.2290    7.0570   31.1840 C   0  0  0  0  0  0  0  0  0  0  0  0
   52.2300    6.7010   30.2560 N   0  0  0  0  0  0  0  0  0  0  0  0
   53.6880    8.3120   31.1770 N   0  0  0  0  0  0  0  0  0  0  0  0
   54.6300    8.6120   32.0980 C   0  0  0  0  0  0  0  0  0  0  0  0
   55.2790    9.7910   32.3490 N   0  0  0  0  0  0  0  0  0  0  0  0
   50.5562   13.0703   34.7097 H   0  0  0  0  0  0  0  0  0  0  0  0
   51.8183   12.1451   35.5915 H   0  0  0  0  0  0  0  0  0  0  0  0
   51.6701   11.9871   33.8083 H   0  0  0  0  0  0  0  0  0  0  0  0
   50.8969   15.2057   34.4869 H   0  0  0  0  0  0  0  0  0  0  0  0
   52.2993   17.2147   34.1829 H   0  0  0  0  0  0  0  0  0  0  0  0
   54.7562   16.9770   34.0065 H   0  0  0  0  0  0  0  0  0  0  0  0
   55.7941   14.7470   34.1229 H   0  0  0  0  0  0  0  0  0  0  0  0
   56.6538   13.1022   34.3862 H   0  0  0  0  0  0  0  0  0  0  0  0
   55.9984   12.5382   32.8117 H   0  0  0  0  0  0  0  0  0  0  0  0
   56.6295    7.8641   34.5583 H   0  0  0  0  0  0  0  0  0  0  0  0
   53.2782    5.1926   31.9820 H   0  0  0  0  0  0  0  0  0  0  0  0
   51.8688    7.4023   29.5937 H   0  0  0  0  0  0  0  0  0  0  0  0
   51.8610    5.7395   30.2400 H   0  0  0  0  0  0  0  0  0  0  0  0
  1  2  2  0  0  0  0
  2  3  1  0  0  0  0
  2 10  1  0  0  0  0
  3  4  2  0  0  0  0
  3  9  1  0  0  0  0
  4  5  1  0  0  0  0
  4  6  1  0  0  0  0
  5 23  1  0  0  0  0
  5 24  1  0  0  0  0
  5 25  1  0  0  0  0
  6  7  2  0  0  0  0
  6 26  1  0  0  0  0
  7  8  1  0  0  0  0
  7 27  1  0  0  0  0
  8  9  2  0  0  0  0
  8 28  1  0  0  0  0
  9 29  1  0  0  0  0
 10 11  1  0  0  0  0
 10 30  1  0  0  0  0
 10 31  1  0  0  0  0
 11 12  1  0  0  0  0
 12 13  1  0  0  0  0
 12 22  2  0  0  0  0
 13 14  1  0  0  0  0
 13 32  1  0  0  0  0
 14 15  1  0  0  0  0
 14 21  2  0  0  0  0
 15 16  2  0  0  0  0
 15 17  1  0  0  0  0
 17 18  1  0  0  0  0
 17 33  1  0  0  0  0
 18 19  1  0  0  0  0
 18 20  2  0  0  0  0
 19 34  1  0  0  0  0
 19 35  1  0  0  0  0
 20 21  1  0  0  0  0
 21 22  1  0  0  0  0
M  END
