4m5o_ligand
 OpenBabel08222323353D

 23 24  0  0  1  0  0  0  0  0999 V2000
   10.0220   22.1940   -8.4190 O   0  0  0  0  0  0  0  0  0  0  0  0
   10.2310   21.7550   -9.5390 C   0  0  0  0  0  0  0  0  0  0  0  0
   10.9020   22.5190  -10.4350 N   0  0  0  0  0  0  0  0  0  0  0  0
   11.1570   22.0500  -11.6930 C   0  0  0  0  0  0  0  0  0  0  0  0
   10.7370   20.7760  -12.0760 C   0  0  0  0  0  0  0  0  0  0  0  0
   10.0460   20.0020  -11.1710 C   0  0  0  0  0  0  0  0  0  0  0  0
    9.7910   20.4860   -9.9190 C   0  0  1  0  0  0  0  0  0  0  0  0
    9.0960   19.7140   -8.9910 O   0  0  0  0  0  0  0  0  0  0  0  0
   11.9390   22.9560  -12.6160 C   0  0  0  0  0  0  0  0  0  0  0  0
   12.9830   23.7050  -12.0680 C   0  0  0  0  0  0  0  0  0  0  0  0
   13.7220   24.5480  -12.8810 C   0  0  0  0  0  0  0  0  0  0  0  0
   13.4180   24.6310  -14.2380 C   0  0  0  0  0  0  0  0  0  0  0  0
   12.3820   23.8850  -14.7880 C   0  0  0  0  0  0  0  0  0  0  0  0
   11.6350   23.0430  -13.9740 C   0  0  0  0  0  0  0  0  0  0  0  0
   10.9523   20.3997  -13.0750 H   0  0  0  0  0  0  0  0  0  0  0  0
    9.7038   19.0071  -11.4522 H   0  0  0  0  0  0  0  0  0  0  0  0
    8.8450   20.9161  -10.2798 H   0  0  0  0  0  0  0  0  0  0  0  0
    8.2342   19.5085   -9.3338 H   0  0  0  0  0  0  0  0  0  0  0  0
   13.2135   23.6268  -11.0117 H   0  0  0  0  0  0  0  0  0  0  0  0
   14.5303   25.1384  -12.4649 H   0  0  0  0  0  0  0  0  0  0  0  0
   13.9987   25.2880  -14.8753 H   0  0  0  0  0  0  0  0  0  0  0  0
   12.1583   23.9599  -15.8460 H   0  0  0  0  0  0  0  0  0  0  0  0
   10.8228   22.4586  -14.3909 H   0  0  0  0  0  0  0  0  0  0  0  0
  1  2  2  0  0  0  0
  2  3  1  0  0  0  0
  2  7  1  0  0  0  0
  3  4  2  0  0  0  0
  4  5  1  0  0  0  0
  4  9  1  0  0  0  0
  5  6  2  0  0  0  0
  5 15  1  0  0  0  0
  6  7  1  0  0  0  0
  6 16  1  0  0  0  0
  7  8  1  0  0  0  0
  7 17  1  6  0  0  0
  8 18  1  0  0  0  0
  9 10  2  0  0  0  0
  9 14  1  0  0  0  0
 10 11  1  0  0  0  0
 10 19  1  0  0  0  0
 11 12  2  0  0  0  0
 11 20  1  0  0  0  0
 12 13  1  0  0  0  0
 12 21  1  0  0  0  0
 13 14  2  0  0  0  0
 13 22  1  0  0  0  0
 14 23  1  0  0  0  0
M  END
