4m5r_ligand
 OpenBabel08222323353D

 20 21  0  0  0  0  0  0  0  0999 V2000
   10.6920   12.7120  -16.7180 C   0  0  0  0  0  0  0  0  0  0  0  0
   10.5550   11.7610  -17.7120 C   0  0  0  0  0  0  0  0  0  0  0  0
   11.2850   10.5840  -17.6450 C   0  0  0  0  0  0  0  0  0  0  0  0
   11.1420    9.6390  -18.6380 O   0  0  0  0  0  0  0  0  0  0  0  0
   12.1530   10.3590  -16.5860 C   0  0  0  0  0  0  0  0  0  0  0  0
   12.2990   11.3220  -15.5970 C   0  0  0  0  0  0  0  0  0  0  0  0
   11.5650   12.4950  -15.6470 C   0  0  0  0  0  0  0  0  0  0  0  0
   11.6980   13.4420  -14.6770 N   0  0  0  0  0  0  0  0  0  0  0  0
   12.8680   13.9190  -14.2150 C   0  0  0  0  0  0  0  0  0  0  0  0
   12.5760   14.8710  -13.2480 C   0  0  0  0  0  0  0  0  0  0  0  0
   11.2340   14.9500  -13.1560 N   0  0  0  0  0  0  0  0  0  0  0  0
   10.6990   14.0670  -14.0240 C   0  0  0  0  0  0  0  0  0  0  0  0
   10.1196   13.6311  -16.7689 H   0  0  0  0  0  0  0  0  0  0  0  0
    9.8789   11.9349  -18.5413 H   0  0  0  0  0  0  0  0  0  0  0  0
   11.7039    8.8964  -18.4502 H   0  0  0  0  0  0  0  0  0  0  0  0
   12.7154    9.4339  -16.5312 H   0  0  0  0  0  0  0  0  0  0  0  0
   12.9920   11.1547  -14.7804 H   0  0  0  0  0  0  0  0  0  0  0  0
   13.8617   13.6142  -14.5400 H   0  0  0  0  0  0  0  0  0  0  0  0
   13.2976   15.4472  -12.6708 H   0  0  0  0  0  0  0  0  0  0  0  0
    9.6350   13.8887  -14.1725 H   0  0  0  0  0  0  0  0  0  0  0  0
  1  2  2  0  0  0  0
  1  7  1  0  0  0  0
  1 13  1  0  0  0  0
  2  3  1  0  0  0  0
  2 14  1  0  0  0  0
  3  4  1  0  0  0  0
  3  5  2  0  0  0  0
  4 15  1  0  0  0  0
  5  6  1  0  0  0  0
  5 16  1  0  0  0  0
  6  7  2  0  0  0  0
  6 17  1  0  0  0  0
  7  8  1  0  0  0  0
  8  9  1  0  0  0  0
  8 12  1  0  0  0  0
  9 10  2  0  0  0  0
  9 18  1  0  0  0  0
 10 11  1  0  0  0  0
 10 19  1  0  0  0  0
 11 12  2  0  0  0  0
 12 20  1  0  0  0  0
M  END
