4m6q_ligand
 OpenBabel08222323353D

 67 71  0  0  1  0  0  0  0  0999 V2000
   16.4900    4.4970   -4.7080 C   0  0  0  0  0  0  0  0  0  0  0  0
   17.4720    3.7630   -4.0680 C   0  0  0  0  0  0  0  0  0  0  0  0
   17.3970    3.5210   -2.7060 C   0  0  0  0  0  0  0  0  0  0  0  0
   16.3270    4.0240   -1.9830 C   0  0  0  0  0  0  0  0  0  0  0  0
   15.3360    4.7550   -2.6220 C   0  0  0  0  0  0  0  0  0  0  0  0
   15.4210    4.9980   -3.9870 C   0  0  0  0  0  0  0  0  0  0  0  0
   13.9970    5.3940   -1.6600 S   0  0  0  0  0  0  0  0  0  0  0  0
   13.1540    6.1500   -2.5220 O   0  0  0  0  0  0  0  0  0  0  0  0
   13.5410    4.3080   -0.8690 O   0  0  0  0  0  0  0  0  0  0  0  0
   14.8610    6.5260   -0.6240 C   0  0  0  0  0  0  0  0  0  0  0  0
   15.2610    7.7420   -1.1370 C   0  0  0  0  0  0  0  0  0  0  0  0
   15.9610    8.6260   -0.3410 C   0  0  0  0  0  0  0  0  0  0  0  0
   16.2620    8.2940    0.9630 C   0  0  0  0  0  0  0  0  0  0  0  0
   15.8820    7.0730    1.4700 C   0  0  0  0  0  0  0  0  0  0  0  0
   15.1810    6.1890    0.6730 C   0  0  0  0  0  0  0  0  0  0  0  0
   17.0520    9.2710    1.7890 C   0  0  0  0  0  0  0  0  0  0  0  0
   16.5510    9.4720    3.1410 N   0  0  0  0  0  0  0  0  0  0  0  0
   15.4390   10.2020    3.3050 C   0  0  0  0  0  0  0  0  0  0  0  0
   14.8690   10.6680    2.3370 O   0  0  0  0  0  0  0  0  0  0  0  0
   14.9120   10.4460    4.6560 C   0  0  0  0  0  0  0  0  0  0  0  0
   15.4800    9.8460    5.7810 C   0  0  0  0  0  0  0  0  0  0  0  0
   14.9150   10.1470    7.0260 C   0  0  0  0  0  0  0  0  0  0  0  0
   15.1960    9.7480    8.4010 C   0  0  0  0  0  0  0  0  0  0  0  0
   14.3370   10.3470    9.1660 N   0  0  0  0  0  0  0  0  0  0  0  0
   13.4690   11.1380    8.4080 N   0  0  0  0  0  0  0  0  0  0  0  0
   13.8140   11.0310    7.0910 C   0  0  0  0  0  0  0  0  0  0  0  0
   13.3230   11.5670    5.9800 N   0  0  0  0  0  0  0  0  0  0  0  0
   13.8240   11.3050    4.8070 C   0  0  0  0  0  0  0  0  0  0  0  0
   12.3900   11.9800    8.9500 C   0  0  1  0  0  0  0  0  0  0  0  0
   11.0530   11.8630    8.1950 C   0  0  1  0  0  0  0  0  0  0  0  0
   10.4060   10.6740    8.9080 C   0  0  1  0  0  0  0  0  0  0  0  0
   10.8290   10.9280   10.3680 C   0  0  2  0  0  0  0  0  0  0  0  0
   12.1040   11.6100   10.3180 O   0  0  0  0  0  0  0  0  0  0  0  0
   10.9890    9.6090   11.1230 C   0  0  0  0  0  0  0  0  0  0  0  0
    9.7840    8.8640   10.9900 O   0  0  0  0  0  0  0  0  0  0  0  0
    8.7700    8.6060   12.2020 P   0  0  0  0  0  0  0  0  0  0  0  0
    7.7540    7.6330   11.7500 O   0  0  0  0  0  1  0  0  0  0  0  0
    9.5880    8.0330   13.4610 O   0  0  0  0  0  1  0  0  0  0  0  0
    8.0290    9.9810   12.5930 O   0  0  0  0  0  0  0  0  0  0  0  0
    8.9900   10.7790    8.7860 O   0  0  0  0  0  0  0  0  0  0  0  0
   10.2630   13.0350    8.4100 O   0  0  0  0  0  0  0  0  0  0  0  0
   18.4720    2.7190   -2.0050 C   0  0  0  0  0  0  0  0  0  0  0  0
   18.8190    1.5930   -2.7570 F   0  0  0  0  0  0  0  0  0  0  0  0
   19.6250    3.4950   -1.8420 F   0  0  0  0  0  0  0  0  0  0  0  0
   18.0120    2.3040   -0.7510 F   0  0  0  0  0  0  0  0  0  0  0  0
   16.5580    4.6797   -5.7743 H   0  0  0  0  0  0  0  0  0  0  0  0
   18.3081    3.3734   -4.6374 H   0  0  0  0  0  0  0  0  0  0  0  0
   16.2642    3.8458   -0.9156 H   0  0  0  0  0  0  0  0  0  0  0  0
   14.6526    5.5780   -4.4853 H   0  0  0  0  0  0  0  0  0  0  0  0
   15.0263    8.0029   -2.1626 H   0  0  0  0  0  0  0  0  0  0  0  0
   16.2747    9.5831   -0.7418 H   0  0  0  0  0  0  0  0  0  0  0  0
   16.1316    6.8057    2.4905 H   0  0  0  0  0  0  0  0  0  0  0  0
   14.8813    5.2258    1.0698 H   0  0  0  0  0  0  0  0  0  0  0  0
   17.0424   10.2422    1.2726 H   0  0  0  0  0  0  0  0  0  0  0  0
   18.0862    8.9028    1.8585 H   0  0  0  0  0  0  0  0  0  0  0  0
   17.0246    9.0754    3.9274 H   0  0  0  0  0  0  0  0  0  0  0  0
   16.3255    9.1733    5.6941 H   0  0  0  0  0  0  0  0  0  0  0  0
   15.9840    9.0702    8.7259 H   0  0  0  0  0  0  0  0  0  0  0  0
   13.3857   11.7647    3.9286 H   0  0  0  0  0  0  0  0  0  0  0  0
   12.7268   13.0265    8.9135 H   0  0  0  0  0  0  0  0  0  0  0  0
   11.1950   11.6814    7.1194 H   0  0  0  0  0  0  0  0  0  0  0  0
   10.7635    9.7053    8.5289 H   0  0  0  0  0  0  0  0  0  0  0  0
   10.0797   11.5537   10.8750 H   0  0  0  0  0  0  0  0  0  0  0  0
   11.1847    9.8114   12.1864 H   0  0  0  0  0  0  0  0  0  0  0  0
   11.8274    9.0375   10.6982 H   0  0  0  0  0  0  0  0  0  0  0  0
    8.7147   11.6507    9.0448 H   0  0  0  0  0  0  0  0  0  0  0  0
    9.3895   12.8946    8.0639 H   0  0  0  0  0  0  0  0  0  0  0  0
  1  2  2  0  0  0  0
  1  6  1  0  0  0  0
  1 46  1  0  0  0  0
  2  3  1  0  0  0  0
  2 47  1  0  0  0  0
  3  4  2  0  0  0  0
  3 42  1  0  0  0  0
  4  5  1  0  0  0  0
  4 48  1  0  0  0  0
  5  6  2  0  0  0  0
  5  7  1  0  0  0  0
  6 49  1  0  0  0  0
  7  8  2  0  0  0  0
  7  9  2  0  0  0  0
  7 10  1  0  0  0  0
 10 11  2  0  0  0  0
 10 15  1  0  0  0  0
 11 12  1  0  0  0  0
 11 50  1  0  0  0  0
 12 13  2  0  0  0  0
 12 51  1  0  0  0  0
 13 14  1  0  0  0  0
 13 16  1  0  0  0  0
 14 15  2  0  0  0  0
 14 52  1  0  0  0  0
 15 53  1  0  0  0  0
 16 17  1  0  0  0  0
 16 54  1  0  0  0  0
 16 55  1  0  0  0  0
 17 18  1  0  0  0  0
 17 56  1  0  0  0  0
 18 19  2  0  0  0  0
 18 20  1  0  0  0  0
 20 21  2  0  0  0  0
 20 28  1  0  0  0  0
 21 22  1  0  0  0  0
 21 57  1  0  0  0  0
 22 23  1  0  0  0  0
 22 26  2  0  0  0  0
 23 24  2  0  0  0  0
 23 58  1  0  0  0  0
 24 25  1  0  0  0  0
 25 26  1  0  0  0  0
 25 29  1  0  0  0  0
 26 27  1  0  0  0  0
 27 28  2  0  0  0  0
 28 59  1  0  0  0  0
 29 30  1  0  0  0  0
 29 33  1  0  0  0  0
 29 60  1  6  0  0  0
 30 31  1  0  0  0  0
 30 41  1  0  0  0  0
 30 61  1  6  0  0  0
 31 32  1  0  0  0  0
 31 40  1  0  0  0  0
 31 62  1  6  0  0  0
 32 33  1  0  0  0  0
 32 34  1  0  0  0  0
 32 63  1  1  0  0  0
 34 35  1  0  0  0  0
 34 64  1  0  0  0  0
 34 65  1  0  0  0  0
 35 36  1  0  0  0  0
 36 37  1  0  0  0  0
 36 38  1  0  0  0  0
 36 39  2  0  0  0  0
 40 66  1  0  0  0  0
 41 67  1  0  0  0  0
 42 43  1  0  0  0  0
 42 44  1  0  0  0  0
 42 45  1  0  0  0  0
M  END
