4m6u_ligand
 OpenBabel08222323353D

 10  9  0  0  0  0  0  0  0  0999 V2000
  -22.6240   19.1650  -23.5560 C   0  0  0  0  0  0  0  0  0  0  0  0
  -21.9340   20.1990  -24.3950 C   0  0  0  0  0  0  0  0  0  0  0  0
  -22.8200   21.3890  -24.6170 C   0  0  0  0  0  0  0  0  0  0  0  0
  -23.5230   19.5360  -22.7710 O   0  5  0  0  0  0  0  0  0  0  0  0
  -22.2730   17.9710  -23.6740 O   0  0  0  0  0  0  0  0  0  0  0  0
  -20.7290   20.6160  -23.7430 O   0  0  0  0  0  0  0  0  0  0  0  0
  -23.2130   22.0340  -23.6220 O   0  5  0  0  0  0  0  0  0  0  0  0
  -23.1310   21.6900  -25.7900 O   0  0  0  0  0  0  0  0  0  0  0  0
  -21.6824   19.7560  -25.3699 H   0  0  0  0  0  0  0  0  0  0  0  0
  -20.1687   19.8617  -23.6029 H   0  0  0  0  0  0  0  0  0  0  0  0
  1  2  1  0  0  0  0
  1  4  1  0  0  0  0
  1  5  2  0  0  0  0
  2  3  1  0  0  0  0
  2  6  1  0  0  0  0
  2  9  1  0  0  0  0
  3  7  1  0  0  0  0
  3  8  2  0  0  0  0
  6 10  1  0  0  0  0
M  CHG  2   4  -1   7  -1
M  END
