4m7b_ligand
 OpenBabel08222323353D

 36 38  0  0  0  0  0  0  0  0999 V2000
    4.0460   14.6180  -13.2230 C   0  0  0  0  0  0  0  0  0  0  0  0
    5.0300   13.5780  -13.5160 C   0  0  0  0  0  0  0  0  0  0  0  0
    5.5570   12.7870  -12.4800 C   0  0  0  0  0  0  0  0  0  0  0  0
    5.3980   13.3180  -14.7800 N   0  0  0  0  0  2  0  0  0  0  0  0
    6.2390   12.4050  -15.0480 N   0  0  0  0  0  0  0  0  0  0  0  0
    6.7450   12.0830  -16.2430 C   0  0  0  0  0  0  0  0  0  0  0  0
    7.6020   11.0620  -16.0260 N   0  0  0  0  0  0  0  0  0  0  0  0
    7.6150   10.7930  -14.7850 N   0  0  0  0  0  0  0  0  0  0  0  0
    6.7900   11.5950  -14.1140 C   0  0  0  0  0  0  0  0  0  0  0  0
    6.4810   11.7950  -12.8140 C   0  0  0  0  0  0  0  0  0  0  0  0
    6.9860   11.0120  -11.8530 N   0  0  0  0  0  0  0  0  0  0  0  0
    6.6470   11.1120  -10.4100 C   0  0  0  0  0  0  0  0  0  0  0  0
    7.4840   10.1650   -9.4850 C   0  0  0  0  0  0  0  0  0  0  0  0
    7.1510   10.3860   -8.1070 C   0  0  0  0  0  0  0  0  0  0  0  0
    7.9910   11.1730   -7.3170 C   0  0  0  0  0  0  0  0  0  0  0  0
    7.7210   11.4510   -5.9800 C   0  0  0  0  0  0  0  0  0  0  0  0
    6.5560   10.9900   -5.4230 C   0  0  0  0  0  0  0  0  0  0  0  0
    6.3490   11.2870   -4.1230 O   0  0  0  0  0  0  0  0  0  0  0  0
    5.6760   10.2120   -6.1710 C   0  0  0  0  0  0  0  0  0  0  0  0
    5.9630    9.9080   -7.5260 C   0  0  0  0  0  0  0  0  0  0  0  0
    3.8837   14.6735  -12.1365 H   0  0  0  0  0  0  0  0  0  0  0  0
    3.0968   14.3762  -13.7236 H   0  0  0  0  0  0  0  0  0  0  0  0
    4.4168   15.5870  -13.5883 H   0  0  0  0  0  0  0  0  0  0  0  0
    5.2544   12.9429  -11.4508 H   0  0  0  0  0  0  0  0  0  0  0  0
    6.5128   12.5501  -17.1990 H   0  0  0  0  0  0  0  0  0  0  0  0
    7.6600   10.2859  -12.1350 H   0  0  0  0  0  0  0  0  0  0  0  0
    5.5830   10.8610  -10.2877 H   0  0  0  0  0  0  0  0  0  0  0  0
    6.8186   12.1493  -10.0867 H   0  0  0  0  0  0  0  0  0  0  0  0
    8.5550   10.3659   -9.6353 H   0  0  0  0  0  0  0  0  0  0  0  0
    7.2669    9.1188   -9.7466 H   0  0  0  0  0  0  0  0  0  0  0  0
    8.8896   11.5841   -7.7627 H   0  0  0  0  0  0  0  0  0  0  0  0
    8.4233   12.0250   -5.3864 H   0  0  0  0  0  0  0  0  0  0  0  0
    5.5179   10.9208   -3.8441 H   0  0  0  0  0  0  0  0  0  0  0  0
    4.7669    9.8368   -5.7151 H   0  0  0  0  0  0  0  0  0  0  0  0
    5.2715    9.3113   -8.1098 H   0  0  0  0  0  0  0  0  0  0  0  0
    8.1875   10.0529  -14.3545 H   0  0  0  0  0  0  0  0  0  0  0  0
  1  2  1  0  0  0  0
  1 21  1  0  0  0  0
  1 22  1  0  0  0  0
  1 23  1  0  0  0  0
  2  3  2  0  0  0  0
  2  4  1  0  0  0  0
  3 10  1  0  0  0  0
  3 24  1  0  0  0  0
  4  5  1  0  0  0  0
  5  6  1  0  0  0  0
  5  9  1  0  0  0  0
  6  7  2  0  0  0  0
  6 25  1  0  0  0  0
  7  8  1  0  0  0  0
  8  9  1  0  0  0  0
  8 36  1  0  0  0  0
  9 10  2  0  0  0  0
 10 11  1  0  0  0  0
 11 12  1  0  0  0  0
 11 26  1  0  0  0  0
 12 13  1  0  0  0  0
 12 27  1  0  0  0  0
 12 28  1  0  0  0  0
 13 14  1  0  0  0  0
 13 29  1  0  0  0  0
 13 30  1  0  0  0  0
 14 15  2  0  0  0  0
 14 20  1  0  0  0  0
 15 16  1  0  0  0  0
 15 31  1  0  0  0  0
 16 17  2  0  0  0  0
 16 32  1  0  0  0  0
 17 18  1  0  0  0  0
 17 19  1  0  0  0  0
 18 33  1  0  0  0  0
 19 20  2  0  0  0  0
 19 34  1  0  0  0  0
 20 35  1  0  0  0  0
M  END
