4mb9_ligand
 OpenBabel08222323353D

 48 51  0  0  1  0  0  0  0  0999 V2000
   19.6720   34.1440    1.5880 C   0  0  0  0  0  0  0  0  0  0  0  0
   19.3310   32.6640    1.6460 C   0  0  0  0  0  0  0  0  0  0  0  0
   18.4250   30.6560    3.4840 O   0  0  0  0  0  0  0  0  0  0  0  0
   16.3570   31.6800    3.5350 N   0  0  0  0  0  0  0  0  0  0  0  0
   15.8560   30.8820    4.5510 C   0  0  0  0  0  0  0  0  0  0  0  0
   14.4580   30.2610    6.1410 C   0  0  0  0  0  0  0  0  0  0  0  0
   13.3900   30.2380    7.0330 C   0  0  0  0  0  0  0  0  0  0  0  0
   13.2760   29.1960    7.9380 C   0  0  0  0  0  0  0  0  0  0  0  0
   14.2900   28.2150    7.8880 C   0  0  0  0  0  0  0  0  0  0  0  0
   15.3820   29.2300    6.2210 C   0  0  0  0  0  0  0  0  0  0  0  0
   15.5200   24.8970   11.0550 C   0  0  0  0  0  0  0  0  0  0  0  0
   16.4290   23.8420   10.4470 C   0  0  0  0  0  0  0  0  0  0  0  0
   14.4510   23.8690    9.2480 C   0  0  0  0  0  0  0  0  0  0  0  0
   11.3820   28.0240    9.1570 C   0  0  0  0  0  0  0  0  0  0  0  0
   10.3790   27.9860   10.0550 N   0  0  0  0  0  0  0  0  0  0  0  0
   17.9930   32.4950    2.1510 N   0  0  0  0  0  0  0  0  0  0  0  0
   17.6620   31.5450    3.0940 C   0  0  0  0  0  0  0  0  0  0  0  0
   14.7460   31.2010    5.1850 N   0  0  0  0  0  0  0  0  0  0  0  0
   15.3500   28.1880    7.0540 N   0  0  0  0  0  0  0  0  0  0  0  0
   16.6620   29.3950    5.0390 S   0  0  0  0  0  0  0  0  0  0  0  0
   14.1660   27.1790    8.7700 O   0  0  0  0  0  0  0  0  0  0  0  0
   15.1800   26.2000    8.9290 C   0  0  0  0  0  0  0  0  0  0  0  0
   14.5820   25.2000    9.9150 C   0  0  2  0  0  0  0  0  0  0  0  0
   15.7910   23.3600    9.2520 O   0  0  0  0  0  0  0  0  0  0  0  0
   12.1660   29.1390    8.9250 C   0  0  0  0  0  0  0  0  0  0  0  0
   10.1610   29.1160   10.7430 C   0  0  0  0  0  0  0  0  0  0  0  0
   10.8430   30.2630   10.6230 N   0  0  0  0  0  0  0  0  0  0  0  0
   11.8280   30.2280    9.7040 C   0  0  0  0  0  0  0  0  0  0  0  0
   20.6943   34.2698    1.2020 H   0  0  0  0  0  0  0  0  0  0  0  0
   19.6057   34.5754    2.5977 H   0  0  0  0  0  0  0  0  0  0  0  0
   18.9629   34.6579    0.9223 H   0  0  0  0  0  0  0  0  0  0  0  0
   20.0407   32.1508    2.3114 H   0  0  0  0  0  0  0  0  0  0  0  0
   19.3980   32.2332    0.6361 H   0  0  0  0  0  0  0  0  0  0  0  0
   15.7647   32.3661    3.1126 H   0  0  0  0  0  0  0  0  0  0  0  0
   12.6514   31.0313    7.0195 H   0  0  0  0  0  0  0  0  0  0  0  0
   16.0884   25.7905   11.3526 H   0  0  0  0  0  0  0  0  0  0  0  0
   14.9759   24.5017   11.9255 H   0  0  0  0  0  0  0  0  0  0  0  0
   16.5712   23.0140   11.1571 H   0  0  0  0  0  0  0  0  0  0  0  0
   17.4052   24.2845   10.1994 H   0  0  0  0  0  0  0  0  0  0  0  0
   14.0754   23.9795    8.2200 H   0  0  0  0  0  0  0  0  0  0  0  0
   13.7781   23.2093    9.8154 H   0  0  0  0  0  0  0  0  0  0  0  0
   11.5866   27.1279    8.5824 H   0  0  0  0  0  0  0  0  0  0  0  0
   17.2717   33.0934    1.8022 H   0  0  0  0  0  0  0  0  0  0  0  0
   16.0967   26.6503    9.3375 H   0  0  0  0  0  0  0  0  0  0  0  0
   15.4068   25.7134    7.9689 H   0  0  0  0  0  0  0  0  0  0  0  0
   13.6139   25.5707   10.2830 H   0  0  0  0  0  0  0  0  0  0  0  0
    9.3543   29.1000   11.4669 H   0  0  0  0  0  0  0  0  0  0  0  0
   12.4058   31.1344    9.5639 H   0  0  0  0  0  0  0  0  0  0  0  0
  1 29  1  0  0  0  0
  1 30  1  0  0  0  0
  1 31  1  0  0  0  0
  2  1  1  0  0  0  0
  2 32  1  0  0  0  0
  2 33  1  0  0  0  0
  4 17  1  0  0  0  0
  4 34  1  0  0  0  0
  5  4  1  0  0  0  0
  5 18  2  0  0  0  0
  6 18  1  0  0  0  0
  7  6  2  0  0  0  0
  7 35  1  0  0  0  0
  8  7  1  0  0  0  0
  8 25  1  0  0  0  0
  9  8  2  0  0  0  0
  9 19  1  0  0  0  0
 10  6  1  0  0  0  0
 10 20  1  0  0  0  0
 11 12  1  0  0  0  0
 11 36  1  0  0  0  0
 11 37  1  0  0  0  0
 12 38  1  0  0  0  0
 12 39  1  0  0  0  0
 13 24  1  0  0  0  0
 13 40  1  0  0  0  0
 13 41  1  0  0  0  0
 14 15  2  0  0  0  0
 14 42  1  0  0  0  0
 15 26  1  0  0  0  0
 16  2  1  0  0  0  0
 16 43  1  0  0  0  0
 17  3  2  0  0  0  0
 17 16  1  0  0  0  0
 19 10  2  0  0  0  0
 20  5  1  0  0  0  0
 21  9  1  0  0  0  0
 22 21  1  0  0  0  0
 22 23  1  0  0  0  0
 22 44  1  0  0  0  0
 22 45  1  0  0  0  0
 23 11  1  0  0  0  0
 23 13  1  0  0  0  0
 23 46  1  1  0  0  0
 24 12  1  0  0  0  0
 25 14  1  0  0  0  0
 25 28  2  0  0  0  0
 26 27  2  0  0  0  0
 26 47  1  0  0  0  0
 27 28  1  0  0  0  0
 28 48  1  0  0  0  0
M  END
