4mbc_ligand
 OpenBabel08222323353D

 56 59  0  0  0  0  0  0  0  0999 V2000
   19.1340   34.6860    1.8490 C   0  0  0  0  0  0  0  0  0  0  0  0
   19.6590   33.5670    1.3240 C   0  0  0  0  0  0  0  0  0  0  0  0
   19.0560   32.2220    1.5370 C   0  0  0  0  0  0  0  0  0  0  0  0
   15.6100   30.9350    4.7280 C   0  0  0  0  0  0  0  0  0  0  0  0
   14.1850   30.3800    6.3300 C   0  0  0  0  0  0  0  0  0  0  0  0
   13.0980   30.4640    7.1810 C   0  0  0  0  0  0  0  0  0  0  0  0
   12.9680   29.4170    8.0810 C   0  0  0  0  0  0  0  0  0  0  0  0
   13.9050   28.3780    8.0700 C   0  0  0  0  0  0  0  0  0  0  0  0
   15.0580   29.3040    6.4120 C   0  0  0  0  0  0  0  0  0  0  0  0
   13.7440   27.3420    9.0020 O   0  0  0  0  0  0  0  0  0  0  0  0
   13.8320   25.0160    8.7430 C   0  0  0  0  0  0  0  0  0  0  0  0
   12.0730   25.4280   10.3510 C   0  0  0  0  0  0  0  0  0  0  0  0
   11.6840   25.1510   11.7910 C   0  0  0  0  0  0  0  0  0  0  0  0
   12.4230   22.9410   11.4560 C   0  0  0  0  0  0  0  0  0  0  0  0
   10.9940   28.3290    9.1000 C   0  0  0  0  0  0  0  0  0  0  0  0
   11.5570   30.4830    9.8410 C   0  0  0  0  0  0  0  0  0  0  0  0
    9.9580   28.3490   10.0190 C   0  0  0  0  0  0  0  0  0  0  0  0
    9.7780   29.4620   10.8140 C   0  0  0  0  0  0  0  0  0  0  0  0
   11.8430   29.4210    9.0150 C   0  0  0  0  0  0  0  0  0  0  0  0
   17.3290   31.4290    3.1260 C   0  0  0  0  0  0  0  0  0  0  0  0
   12.8200   23.2740   10.0260 C   0  0  0  0  0  0  0  0  0  0  0  0
   14.6820   26.2720    8.8660 C   0  0  0  0  0  0  0  0  0  0  0  0
   10.5560   30.5600   10.7420 N   0  0  0  0  0  0  0  0  0  0  0  0
   14.5340   31.2930    5.3570 N   0  0  0  0  0  0  0  0  0  0  0  0
   14.9630   28.2610    7.2640 N   0  0  0  0  0  0  0  0  0  0  0  0
   13.2750   24.6580   10.0490 N   0  3  0  0  0  0  0  0  0  0  0  0
   16.1020   31.7310    3.7070 N   0  0  0  0  0  0  0  0  0  0  0  0
   17.6870   32.2540    2.1220 N   0  0  0  0  0  0  0  0  0  0  0  0
   18.0450   30.5200    3.4960 O   0  0  0  0  0  0  0  0  0  0  0  0
   11.3190   23.7600   11.8730 O   0  0  0  0  0  0  0  0  0  0  0  0
   16.3240   29.4320    5.2530 S   0  0  0  0  0  0  0  0  0  0  0  0
   19.6098   35.6484    1.6663 H   0  0  0  0  0  0  0  0  0  0  0  0
   18.2325   34.6310    2.4574 H   0  0  0  0  0  0  0  0  0  0  0  0
   20.5609   33.6462    0.7189 H   0  0  0  0  0  0  0  0  0  0  0  0
   19.7087   31.6547    2.2168 H   0  0  0  0  0  0  0  0  0  0  0  0
   19.0043   31.7090    0.5653 H   0  0  0  0  0  0  0  0  0  0  0  0
   12.3970   31.2901    7.1469 H   0  0  0  0  0  0  0  0  0  0  0  0
   14.4559   24.1886    8.3740 H   0  0  0  0  0  0  0  0  0  0  0  0
   13.0106   25.2000    8.0348 H   0  0  0  0  0  0  0  0  0  0  0  0
   12.2751   26.5012   10.2194 H   0  0  0  0  0  0  0  0  0  0  0  0
   11.2569   25.1235    9.6793 H   0  0  0  0  0  0  0  0  0  0  0  0
   10.8305   25.7823   12.0790 H   0  0  0  0  0  0  0  0  0  0  0  0
   12.5343   25.3575   12.4576 H   0  0  0  0  0  0  0  0  0  0  0  0
   13.2800   23.1218   12.1215 H   0  0  0  0  0  0  0  0  0  0  0  0
   12.1308   21.8821   11.5138 H   0  0  0  0  0  0  0  0  0  0  0  0
   11.1390   27.4698    8.4552 H   0  0  0  0  0  0  0  0  0  0  0  0
   12.2039   31.3490    9.7594 H   0  0  0  0  0  0  0  0  0  0  0  0
    9.2941   27.4972   10.1128 H   0  0  0  0  0  0  0  0  0  0  0  0
    8.9681   29.4529   11.5345 H   0  0  0  0  0  0  0  0  0  0  0  0
   11.9556   23.1667    9.3542 H   0  0  0  0  0  0  0  0  0  0  0  0
   13.6304   22.6106    9.6897 H   0  0  0  0  0  0  0  0  0  0  0  0
   15.3325   26.2133    9.7511 H   0  0  0  0  0  0  0  0  0  0  0  0
   15.2990   26.4108    7.9660 H   0  0  0  0  0  0  0  0  0  0  0  0
   13.9733   24.7967   10.7626 H   0  0  0  0  0  0  0  0  0  0  0  0
   15.5768   32.5202    3.3886 H   0  0  0  0  0  0  0  0  0  0  0  0
   17.0172   32.9031    1.7614 H   0  0  0  0  0  0  0  0  0  0  0  0
  1 32  1  0  0  0  0
  1 33  1  0  0  0  0
  2  1  2  0  0  0  0
  2 34  1  0  0  0  0
  3  2  1  0  0  0  0
  3 35  1  0  0  0  0
  3 36  1  0  0  0  0
  4 24  2  0  0  0  0
  4 31  1  0  0  0  0
  5  6  2  0  0  0  0
  6  7  1  0  0  0  0
  6 37  1  0  0  0  0
  7 19  1  0  0  0  0
  8  7  2  0  0  0  0
  8 10  1  0  0  0  0
  9  5  1  0  0  0  0
  9 25  2  0  0  0  0
 10 22  1  0  0  0  0
 11 26  1  0  0  0  0
 11 38  1  0  0  0  0
 11 39  1  0  0  0  0
 12 13  1  0  0  0  0
 12 40  1  0  0  0  0
 12 41  1  0  0  0  0
 13 30  1  0  0  0  0
 13 42  1  0  0  0  0
 13 43  1  0  0  0  0
 14 21  1  0  0  0  0
 14 44  1  0  0  0  0
 14 45  1  0  0  0  0
 15 17  2  0  0  0  0
 15 46  1  0  0  0  0
 16 23  1  0  0  0  0
 16 47  1  0  0  0  0
 17 18  1  0  0  0  0
 17 48  1  0  0  0  0
 18 49  1  0  0  0  0
 19 15  1  0  0  0  0
 19 16  2  0  0  0  0
 20 27  1  0  0  0  0
 20 28  1  0  0  0  0
 20 29  2  0  0  0  0
 21 26  1  0  0  0  0
 21 50  1  0  0  0  0
 21 51  1  0  0  0  0
 22 11  1  0  0  0  0
 22 52  1  0  0  0  0
 22 53  1  0  0  0  0
 23 18  2  0  0  0  0
 24  5  1  0  0  0  0
 25  8  1  0  0  0  0
 26 12  1  0  0  0  0
 26 54  1  0  0  0  0
 27  4  1  0  0  0  0
 27 55  1  0  0  0  0
 28  3  1  0  0  0  0
 28 56  1  0  0  0  0
 30 14  1  0  0  0  0
 31  9  1  0  0  0  0
M  CHG  1  26   1
M  END
