4md6_ligand
 OpenBabel08222323353D

 42 46  0  0  0  0  0  0  0  0999 V2000
   47.4890   16.2300   45.3900 C   0  0  0  0  0  0  0  0  0  0  0  0
   48.8620   16.3350   45.1990 C   0  0  0  0  0  0  0  0  0  0  0  0
   49.3610   17.0610   44.1230 C   0  0  0  0  0  0  0  0  0  0  0  0
   50.7030   17.2210   43.9740 O   0  0  0  0  0  0  0  0  0  0  0  0
   48.4860   17.6780   43.2360 C   0  0  0  0  0  0  0  0  0  0  0  0
   47.1130   17.5760   43.4300 C   0  0  0  0  0  0  0  0  0  0  0  0
   46.6130   16.8520   44.5070 C   0  0  0  0  0  0  0  0  0  0  0  0
   45.0910   16.7150   44.6960 C   0  0  0  0  0  0  0  0  0  0  0  0
   44.7370   16.6990   46.1950 C   0  0  0  0  0  0  0  0  0  0  0  0
   44.9520   17.7620   47.1390 N   0  0  0  0  0  0  0  0  0  0  0  0
   44.1900   15.6360   46.9020 C   0  0  0  0  0  0  0  0  0  0  0  0
   43.8320   14.3330   46.4540 O   0  0  0  0  0  0  0  0  0  0  0  0
   43.3490   13.3140   47.3230 C   0  0  0  0  0  0  0  0  0  0  0  0
   43.0480   12.0560   46.8120 C   0  0  0  0  0  0  0  0  0  0  0  0
   42.6050   11.0480   47.6610 C   0  0  0  0  0  0  0  0  0  0  0  0
   42.4590   11.2940   49.0220 C   0  0  0  0  0  0  0  0  0  0  0  0
   42.7560   12.5520   49.5360 C   0  0  0  0  0  0  0  0  0  0  0  0
   43.2030   13.5560   48.6840 C   0  0  0  0  0  0  0  0  0  0  0  0
   43.5680   14.9460   49.2320 C   0  0  0  0  0  0  0  0  0  0  0  0
   43.4550   15.1980   50.4300 O   0  0  0  0  0  0  0  0  0  0  0  0
   44.0750   16.0000   48.2310 C   0  0  0  0  0  0  0  0  0  0  0  0
   44.4880   17.2550   48.4040 C   0  0  0  0  0  0  0  0  0  0  0  0
   44.4960   17.9740   49.5820 C   0  0  0  0  0  0  0  0  0  0  0  0
   45.1100   19.5620   49.7650 S   0  0  0  0  0  0  0  0  0  0  0  0
   44.4640   19.9410   51.2950 C   0  0  0  0  0  0  0  0  0  0  0  0
   43.7720   18.8760   51.6940 C   0  0  0  0  0  0  0  0  0  0  0  0
   43.7910   17.7110   50.6810 C   0  0  0  0  0  0  0  0  0  0  0  0
   47.1008   15.6627   46.2281 H   0  0  0  0  0  0  0  0  0  0  0  0
   49.5437   15.8509   45.8889 H   0  0  0  0  0  0  0  0  0  0  0  0
   50.8747   17.7375   43.1954 H   0  0  0  0  0  0  0  0  0  0  0  0
   48.8742   18.2385   42.3933 H   0  0  0  0  0  0  0  0  0  0  0  0
   46.4314   18.0614   42.7409 H   0  0  0  0  0  0  0  0  0  0  0  0
   44.7509   15.7769   44.2330 H   0  0  0  0  0  0  0  0  0  0  0  0
   44.5875   17.5657   44.2135 H   0  0  0  0  0  0  0  0  0  0  0  0
   45.3538   18.6914   46.9499 H   0  0  0  0  0  0  0  0  0  0  0  0
   43.1588   11.8613   45.7514 H   0  0  0  0  0  0  0  0  0  0  0  0
   42.3728   10.0676   47.2610 H   0  0  0  0  0  0  0  0  0  0  0  0
   42.1140   10.5061   49.6817 H   0  0  0  0  0  0  0  0  0  0  0  0
   42.6396   12.7487   50.5956 H   0  0  0  0  0  0  0  0  0  0  0  0
   44.5923   20.8743   51.8413 H   0  0  0  0  0  0  0  0  0  0  0  0
   43.2428   18.8308   52.6447 H   0  0  0  0  0  0  0  0  0  0  0  0
   43.2775   16.7654   50.8489 H   0  0  0  0  0  0  0  0  0  0  0  0
  1  2  2  0  0  0  0
  1  7  1  0  0  0  0
  1 28  1  0  0  0  0
  2  3  1  0  0  0  0
  2 29  1  0  0  0  0
  3  4  1  0  0  0  0
  3  5  2  0  0  0  0
  4 30  1  0  0  0  0
  5  6  1  0  0  0  0
  5 31  1  0  0  0  0
  6  7  2  0  0  0  0
  6 32  1  0  0  0  0
  7  8  1  0  0  0  0
  8  9  1  0  0  0  0
  8 33  1  0  0  0  0
  8 34  1  0  0  0  0
  9 10  1  0  0  0  0
  9 11  2  0  0  0  0
 10 22  1  0  0  0  0
 10 35  1  0  0  0  0
 11 12  1  0  0  0  0
 11 21  1  0  0  0  0
 12 13  1  0  0  0  0
 13 14  2  0  0  0  0
 13 18  1  0  0  0  0
 14 15  1  0  0  0  0
 14 36  1  0  0  0  0
 15 16  2  0  0  0  0
 15 37  1  0  0  0  0
 16 17  1  0  0  0  0
 16 38  1  0  0  0  0
 17 18  2  0  0  0  0
 17 39  1  0  0  0  0
 18 19  1  0  0  0  0
 19 20  2  0  0  0  0
 19 21  1  0  0  0  0
 21 22  2  0  0  0  0
 22 23  1  0  0  0  0
 23 24  1  0  0  0  0
 23 27  2  0  0  0  0
 24 25  1  0  0  0  0
 25 26  2  0  0  0  0
 25 40  1  0  0  0  0
 26 27  1  0  0  0  0
 26 41  1  0  0  0  0
 27 42  1  0  0  0  0
M  END
