4mdt_ligand
 OpenBabel08222323353D

102104  0  0  1  0  0  0  0  0999 V2000
   29.0680  -38.8820  -14.0840 C   0  0  0  0  0  0  0  0  0  0  0  0
   30.2910  -38.3450  -14.1230 C   0  0  0  0  0  0  0  0  0  0  0  0
   28.5440  -39.4010  -15.3660 C   0  0  0  0  0  0  0  0  0  0  0  0
   30.6290  -38.7260  -16.4840 C   0  0  0  0  0  0  0  0  0  0  0  0
   37.0830  -43.7490   -8.4160 C   0  0  0  0  0  0  0  0  0  0  0  0
   33.8870  -42.7610   -8.1100 C   0  0  2  0  0  0  0  0  0  0  0  0
   34.9680  -43.0120   -9.1480 C   0  0  2  0  0  0  0  0  0  0  0  0
   34.4520  -43.2170  -10.5830 C   0  0  1  0  0  0  0  0  0  0  0  0
   33.6760  -36.0110  -13.8570 C   0  0  1  0  0  0  0  0  0  0  0  0
   32.4060  -36.1700  -14.6640 C   0  0  2  0  0  0  0  0  0  0  0  0
   34.1070  -37.4230  -13.5190 C   0  0  1  0  0  0  0  0  0  0  0  0
   33.3060  -42.2480  -10.8950 C   0  0  1  0  0  0  0  0  0  0  0  0
   32.4050  -37.6220  -15.1240 C   0  0  2  0  0  0  0  0  0  0  0  0
   32.7220  -41.9110   -8.6240 C   0  0  2  0  0  0  0  0  0  0  0  0
   46.7650  -55.1670   -9.8290 C   0  0  0  0  0  0  0  0  0  0  0  0
   37.8970  -44.8310   -7.7560 C   0  0  0  0  0  0  0  0  0  0  0  0
   34.0700  -37.6520  -12.0110 C   0  0  0  0  0  0  0  0  0  0  0  0
   32.7030  -42.4300  -12.2690 C   0  0  0  0  0  0  0  0  0  0  0  0
   45.6520  -54.5250   -9.0290 C   0  0  0  0  0  0  0  0  0  0  0  0
   45.1110  -53.2920   -9.7300 C   0  0  0  0  0  0  0  0  0  0  0  0
   43.5980  -53.3110   -9.8380 C   0  0  0  0  0  0  0  0  0  0  0  0
   43.0090  -52.5180   -8.6950 C   0  0  0  0  0  0  0  0  0  0  0  0
   41.8580  -51.6650   -9.1580 C   0  0  0  0  0  0  0  0  0  0  0  0
   41.2460  -50.9420   -7.9750 C   0  0  0  0  0  0  0  0  0  0  0  0
   39.7930  -50.5490   -8.1650 C   0  0  0  0  0  0  0  0  0  0  0  0
   39.4750  -49.3200   -7.3370 C   0  0  0  0  0  0  0  0  0  0  0  0
   38.4910  -48.3880   -8.0210 C   0  0  0  0  0  0  0  0  0  0  0  0
   38.2210  -47.1880   -7.1400 C   0  0  0  0  0  0  0  0  0  0  0  0
   37.2690  -46.2090   -7.7870 C   0  0  1  0  0  0  0  0  0  0  0  0
   29.3600  -39.2740  -16.4680 N   0  0  0  0  0  0  0  0  0  0  0  0
   31.0800  -38.2410  -15.2490 N   0  0  0  0  0  0  0  0  0  0  0  0
   34.5190  -42.1520   -6.9520 N   0  3  0  0  0  0  0  0  0  0  0  0
   27.4350  -39.9050  -15.3980 O   0  0  0  0  0  0  0  0  0  0  0  0
   31.2670  -38.6920  -17.5330 O   0  0  0  0  0  0  0  0  0  0  0  0
   37.5870  -42.6650   -8.6850 O   0  0  0  0  0  0  0  0  0  0  0  0
   31.9720  -38.3380   -7.2440 O   0  0  0  0  0  1  0  0  0  0  0  0
   32.4760  -36.6150   -9.5080 O   0  0  0  0  0  1  0  0  0  0  0  0
   33.2630  -38.3480  -14.2240 O   0  0  0  0  0  0  0  0  0  0  0  0
   32.2670  -42.3550   -9.9170 O   0  0  0  0  0  0  0  0  0  0  0  0
   35.5170  -42.9140  -11.4830 O   0  0  0  0  0  0  0  0  0  0  0  0
   34.7150  -35.3640  -14.5830 O   0  0  0  0  0  0  0  0  0  0  0  0
   32.3040  -35.2380  -15.7390 O   0  0  0  0  0  0  0  0  0  0  0  0
   31.6840  -41.4590  -12.4350 O   0  0  0  0  0  0  0  0  0  0  0  0
   36.0950  -46.1680   -6.9840 O   0  0  0  0  0  0  0  0  0  0  0  0
   30.3770  -40.3390   -7.8780 O   0  0  0  0  0  0  0  0  0  0  0  0
   30.5100  -37.1890  -11.2170 O   0  0  0  0  0  0  0  0  0  0  0  0
   35.7710  -44.1030   -8.6670 O   0  0  0  0  0  0  0  0  0  0  0  0
   32.9640  -40.5000   -8.4860 O   0  0  0  0  0  0  0  0  0  0  0  0
   32.8610  -38.2890  -11.6220 O   0  0  0  0  0  0  0  0  0  0  0  0
   31.3750  -38.9590   -9.7030 O   0  0  0  0  0  0  0  0  0  0  0  0
   31.7170  -39.4680   -8.2110 P   0  0  2  0  0  0  0  0  0  0  0  0
   31.8940  -37.6310  -10.4670 P   0  0  1  0  0  0  0  0  0  0  0  0
   28.4908  -38.9344  -13.1620 H   0  0  0  0  0  0  0  0  0  0  0  0
   30.6975  -37.9581  -13.1897 H   0  0  0  0  0  0  0  0  0  0  0  0
   33.4727  -43.7345   -7.8089 H   0  0  0  0  0  0  0  0  0  0  0  0
   35.6068  -42.1170   -9.1786 H   0  0  0  0  0  0  0  0  0  0  0  0
   34.1153  -44.2558  -10.7155 H   0  0  0  0  0  0  0  0  0  0  0  0
   33.4681  -35.4393  -12.9406 H   0  0  0  0  0  0  0  0  0  0  0  0
   31.5414  -36.0050  -14.0043 H   0  0  0  0  0  0  0  0  0  0  0  0
   35.1426  -37.5669  -13.8608 H   0  0  0  0  0  0  0  0  0  0  0  0
   33.7196  -41.2299  -10.8464 H   0  0  0  0  0  0  0  0  0  0  0  0
   32.8581  -37.6511  -16.1259 H   0  0  0  0  0  0  0  0  0  0  0  0
   31.8829  -42.1179   -7.9435 H   0  0  0  0  0  0  0  0  0  0  0  0
   47.1345  -56.0553   -9.2957 H   0  0  0  0  0  0  0  0  0  0  0  0
   47.5872  -54.4474   -9.9564 H   0  0  0  0  0  0  0  0  0  0  0  0
   46.3822  -55.4650  -10.8162 H   0  0  0  0  0  0  0  0  0  0  0  0
   38.0512  -44.5492   -6.7040 H   0  0  0  0  0  0  0  0  0  0  0  0
   38.8695  -44.8870   -8.2670 H   0  0  0  0  0  0  0  0  0  0  0  0
   34.1467  -36.6820  -11.4979 H   0  0  0  0  0  0  0  0  0  0  0  0
   34.9203  -38.2876  -11.7227 H   0  0  0  0  0  0  0  0  0  0  0  0
   32.2743  -43.4391  -12.3573 H   0  0  0  0  0  0  0  0  0  0  0  0
   33.4779  -42.2923  -13.0375 H   0  0  0  0  0  0  0  0  0  0  0  0
   46.0413  -54.2345   -8.0421 H   0  0  0  0  0  0  0  0  0  0  0  0
   44.8363  -55.2520   -8.9019 H   0  0  0  0  0  0  0  0  0  0  0  0
   45.5377  -53.2445  -10.7427 H   0  0  0  0  0  0  0  0  0  0  0  0
   45.4143  -52.4001   -9.1621 H   0  0  0  0  0  0  0  0  0  0  0  0
   43.2385  -54.3494   -9.7891 H   0  0  0  0  0  0  0  0  0  0  0  0
   43.2916  -52.8615  -10.7941 H   0  0  0  0  0  0  0  0  0  0  0  0
   43.7884  -51.8684   -8.2702 H   0  0  0  0  0  0  0  0  0  0  0  0
   42.6510  -53.2144   -7.9225 H   0  0  0  0  0  0  0  0  0  0  0  0
   41.0965  -52.3038   -9.6292 H   0  0  0  0  0  0  0  0  0  0  0  0
   42.2210  -50.9273   -9.8887 H   0  0  0  0  0  0  0  0  0  0  0  0
   41.8288  -50.0273   -7.7916 H   0  0  0  0  0  0  0  0  0  0  0  0
   41.3122  -51.6012   -7.0969 H   0  0  0  0  0  0  0  0  0  0  0  0
   39.1464  -51.3799   -7.8464 H   0  0  0  0  0  0  0  0  0  0  0  0
   39.6111  -50.3293   -9.2274 H   0  0  0  0  0  0  0  0  0  0  0  0
   40.4093  -48.7698   -7.1515 H   0  0  0  0  0  0  0  0  0  0  0  0
   39.0438  -49.6440   -6.3783 H   0  0  0  0  0  0  0  0  0  0  0  0
   37.5485  -48.9243   -8.2056 H   0  0  0  0  0  0  0  0  0  0  0  0
   38.9141  -48.0498   -8.9784 H   0  0  0  0  0  0  0  0  0  0  0  0
   39.1730  -46.6755   -6.9376 H   0  0  0  0  0  0  0  0  0  0  0  0
   37.7827  -47.5352   -6.1927 H   0  0  0  0  0  0  0  0  0  0  0  0
   37.0345  -46.5104   -8.8186 H   0  0  0  0  0  0  0  0  0  0  0  0
   29.0007  -39.6098  -17.3387 H   0  0  0  0  0  0  0  0  0  0  0  0
   35.2797  -42.7347   -6.6391 H   0  0  0  0  0  0  0  0  0  0  0  0
   33.8422  -42.0566   -6.2111 H   0  0  0  0  0  0  0  0  0  0  0  0
   34.8736  -41.2423   -7.2023 H   0  0  0  0  0  0  0  0  0  0  0  0
   36.2469  -43.4987  -11.3164 H   0  0  0  0  0  0  0  0  0  0  0  0
   34.4466  -34.4780  -14.7960 H   0  0  0  0  0  0  0  0  0  0  0  0
   33.0410  -35.3530  -16.3273 H   0  0  0  0  0  0  0  0  0  0  0  0
   31.0199  -41.5811  -11.7668 H   0  0  0  0  0  0  0  0  0  0  0  0
   35.4733  -45.5590   -7.3649 H   0  0  0  0  0  0  0  0  0  0  0  0
  1  3  1  0  0  0  0
  1 53  1  0  0  0  0
  2  1  2  0  0  0  0
  2 54  1  0  0  0  0
  3 33  2  0  0  0  0
  4 30  1  0  0  0  0
  4 34  2  0  0  0  0
  5 16  1  0  0  0  0
  5 35  2  0  0  0  0
  6  7  1  0  0  0  0
  6 32  1  0  0  0  0
  6 55  1  1  0  0  0
  7  8  1  0  0  0  0
  7 47  1  0  0  0  0
  7 56  1  6  0  0  0
  8 40  1  0  0  0  0
  8 57  1  6  0  0  0
  9 10  1  0  0  0  0
  9 41  1  0  0  0  0
  9 58  1  1  0  0  0
 10 42  1  0  0  0  0
 10 59  1  1  0  0  0
 11  9  1  0  0  0  0
 11 38  1  0  0  0  0
 11 60  1  6  0  0  0
 12  8  1  0  0  0  0
 12 18  1  0  0  0  0
 12 61  1  1  0  0  0
 13 10  1  0  0  0  0
 13 31  1  0  0  0  0
 13 62  1  6  0  0  0
 14  6  1  0  0  0  0
 14 39  1  0  0  0  0
 14 63  1  1  0  0  0
 15 64  1  0  0  0  0
 15 65  1  0  0  0  0
 15 66  1  0  0  0  0
 16 29  1  0  0  0  0
 16 67  1  0  0  0  0
 16 68  1  0  0  0  0
 17 11  1  0  0  0  0
 17 69  1  0  0  0  0
 17 70  1  0  0  0  0
 18 43  1  0  0  0  0
 18 71  1  0  0  0  0
 18 72  1  0  0  0  0
 19 15  1  0  0  0  0
 19 73  1  0  0  0  0
 19 74  1  0  0  0  0
 20 19  1  0  0  0  0
 20 75  1  0  0  0  0
 20 76  1  0  0  0  0
 21 20  1  0  0  0  0
 21 77  1  0  0  0  0
 21 78  1  0  0  0  0
 22 21  1  0  0  0  0
 22 79  1  0  0  0  0
 22 80  1  0  0  0  0
 23 22  1  0  0  0  0
 23 81  1  0  0  0  0
 23 82  1  0  0  0  0
 24 23  1  0  0  0  0
 24 83  1  0  0  0  0
 24 84  1  0  0  0  0
 25 24  1  0  0  0  0
 25 85  1  0  0  0  0
 25 86  1  0  0  0  0
 26 25  1  0  0  0  0
 26 87  1  0  0  0  0
 26 88  1  0  0  0  0
 27 26  1  0  0  0  0
 27 89  1  0  0  0  0
 27 90  1  0  0  0  0
 28 27  1  0  0  0  0
 28 91  1  0  0  0  0
 28 92  1  0  0  0  0
 29 28  1  0  0  0  0
 29 44  1  0  0  0  0
 29 93  1  6  0  0  0
 30  3  1  0  0  0  0
 30 94  1  0  0  0  0
 31  2  1  0  0  0  0
 31  4  1  0  0  0  0
 32 95  1  0  0  0  0
 32 96  1  0  0  0  0
 32 97  1  0  0  0  0
 38 13  1  0  0  0  0
 39 12  1  0  0  0  0
 40 98  1  0  0  0  0
 41 99  1  0  0  0  0
 42100  1  0  0  0  0
 43101  1  0  0  0  0
 44102  1  0  0  0  0
 47  5  1  0  0  0  0
 48 14  1  0  0  0  0
 49 17  1  0  0  0  0
 50 51  1  0  0  0  0
 50 52  1  0  0  0  0
 51 36  1  1  0  0  0
 51 45  2  0  0  0  0
 51 48  1  0  0  0  0
 52 37  1  1  0  0  0
 52 46  2  0  0  0  0
 52 49  1  0  0  0  0
M  CHG  1  32   1
M  END
