4mf1_ligand
 OpenBabel08222323353D

 54 58  0  0  1  0  0  0  0  0999 V2000
   18.0640  -13.1060   -4.0680 C   0  0  0  0  0  0  0  0  0  0  0  0
   16.9810  -13.2100   -5.0570 N   0  3  0  0  0  0  0  0  0  0  0  0
   17.5190  -13.2600   -6.4260 C   0  0  0  0  0  0  0  0  0  0  0  0
   16.0650  -14.3350   -4.7610 C   0  0  0  0  0  0  0  0  0  0  0  0
   14.9120  -13.8650   -3.8990 C   0  0  0  0  0  0  0  0  0  0  0  0
   14.3670  -14.6700   -2.9070 C   0  0  0  0  0  0  0  0  0  0  0  0
   13.3140  -14.2080   -2.1280 C   0  0  0  0  0  0  0  0  0  0  0  0
   12.8160  -12.9290   -2.3370 C   0  0  0  0  0  0  0  0  0  0  0  0
   13.3580  -12.1400   -3.3300 C   0  0  0  0  0  0  0  0  0  0  0  0
   14.4020  -12.5990   -4.1050 C   0  0  0  0  0  0  0  0  0  0  0  0
   11.6590  -12.3720   -1.5450 C   0  0  1  0  0  0  0  0  0  0  0  0
   11.5740  -10.8690   -1.2760 C   0  0  0  0  0  0  0  0  0  0  0  0
   10.7230  -11.4860   -2.3890 C   0  0  2  0  0  0  0  0  0  0  0  0
    9.2380  -11.5290   -2.1600 C   0  0  0  0  0  0  0  0  0  0  0  0
    8.8350  -11.5510   -1.0200 O   0  0  0  0  0  0  0  0  0  0  0  0
    8.3750  -11.5360   -3.2120 N   0  0  0  0  0  0  0  0  0  0  0  0
    7.0000  -11.5410   -3.0110 C   0  0  0  0  0  0  0  0  0  0  0  0
    6.0980  -11.4510   -3.9390 N   0  0  0  0  0  0  0  0  0  0  0  0
    4.7960  -11.4390   -3.5530 C   0  0  0  0  0  0  0  0  0  0  0  0
    3.6290  -11.3510   -4.3490 C   0  0  0  0  0  0  0  0  0  0  0  0
    2.3940  -11.3410   -3.7750 C   0  0  0  0  0  0  0  0  0  0  0  0
    2.2470  -11.4420   -2.3910 C   0  0  0  0  0  0  0  0  0  0  0  0
    3.3710  -11.5370   -1.5860 C   0  0  0  0  0  0  0  0  0  0  0  0
    4.6340  -11.5340   -2.1690 C   0  0  0  0  0  0  0  0  0  0  0  0
    6.2260  -11.6260   -1.4350 S   0  0  0  0  0  0  0  0  0  0  0  0
    0.9020  -11.4220   -1.7700 C   0  0  0  0  0  0  0  0  0  0  0  0
   -0.2160  -10.8660   -2.3050 C   0  0  0  0  0  0  0  0  0  0  0  0
   -1.2240  -11.0350   -1.4260 N   0  0  0  0  0  0  0  0  0  0  0  0
   -0.7150  -11.7040   -0.3100 N   0  0  0  0  0  0  0  0  0  0  0  0
    0.5540  -11.9310   -0.5080 C   0  0  0  0  0  0  0  0  0  0  0  0
   18.7172  -12.2597   -4.3272 H   0  0  0  0  0  0  0  0  0  0  0  0
   18.6514  -14.0360   -4.0683 H   0  0  0  0  0  0  0  0  0  0  0  0
   17.6337  -12.9444   -3.0687 H   0  0  0  0  0  0  0  0  0  0  0  0
   16.4350  -12.3656   -4.9872 H   0  0  0  0  0  0  0  0  0  0  0  0
   16.6889  -13.3375   -7.1436 H   0  0  0  0  0  0  0  0  0  0  0  0
   18.1764  -14.1358   -6.5299 H   0  0  0  0  0  0  0  0  0  0  0  0
   18.0937  -12.3441   -6.6278 H   0  0  0  0  0  0  0  0  0  0  0  0
   16.6184  -15.1222   -4.2281 H   0  0  0  0  0  0  0  0  0  0  0  0
   15.6704  -14.7390   -5.7050 H   0  0  0  0  0  0  0  0  0  0  0  0
   14.7656  -15.6641   -2.7399 H   0  0  0  0  0  0  0  0  0  0  0  0
   12.8836  -14.8422   -1.3615 H   0  0  0  0  0  0  0  0  0  0  0  0
   12.9585  -11.1473   -3.5032 H   0  0  0  0  0  0  0  0  0  0  0  0
   14.8227  -11.9649   -4.8770 H   0  0  0  0  0  0  0  0  0  0  0  0
   11.2890  -13.0964   -0.8046 H   0  0  0  0  0  0  0  0  0  0  0  0
   12.4223  -10.2170   -1.5314 H   0  0  0  0  0  0  0  0  0  0  0  0
   11.0933  -10.5023   -0.3570 H   0  0  0  0  0  0  0  0  0  0  0  0
   10.9433  -11.2977   -3.4501 H   0  0  0  0  0  0  0  0  0  0  0  0
    8.7360  -11.5376   -4.1446 H   0  0  0  0  0  0  0  0  0  0  0  0
    3.7192  -11.2909   -5.4276 H   0  0  0  0  0  0  0  0  0  0  0  0
    1.5137  -11.2534   -4.4014 H   0  0  0  0  0  0  0  0  0  0  0  0
    3.2668  -11.6131   -0.5097 H   0  0  0  0  0  0  0  0  0  0  0  0
   -0.2856  -10.3713   -3.2727 H   0  0  0  0  0  0  0  0  0  0  0  0
   -2.1979  -10.7254   -1.5545 H   0  0  0  0  0  0  0  0  0  0  0  0
    1.2284  -12.4299    0.1864 H   0  0  0  0  0  0  0  0  0  0  0  0
  1  2  1  0  0  0  0
  1 31  1  0  0  0  0
  1 32  1  0  0  0  0
  1 33  1  0  0  0  0
  2  3  1  0  0  0  0
  2  4  1  0  0  0  0
  2 34  1  0  0  0  0
  3 35  1  0  0  0  0
  3 36  1  0  0  0  0
  3 37  1  0  0  0  0
  4  5  1  0  0  0  0
  4 38  1  0  0  0  0
  4 39  1  0  0  0  0
  5  6  2  0  0  0  0
  5 10  1  0  0  0  0
  6  7  1  0  0  0  0
  6 40  1  0  0  0  0
  7  8  2  0  0  0  0
  7 41  1  0  0  0  0
  8  9  1  0  0  0  0
  8 11  1  0  0  0  0
  9 10  2  0  0  0  0
  9 42  1  0  0  0  0
 10 43  1  0  0  0  0
 11 12  1  0  0  0  0
 11 13  1  0  0  0  0
 11 44  1  1  0  0  0
 12 13  1  0  0  0  0
 12 45  1  0  0  0  0
 12 46  1  0  0  0  0
 13 14  1  0  0  0  0
 13 47  1  6  0  0  0
 14 15  2  0  0  0  0
 14 16  1  0  0  0  0
 16 17  1  0  0  0  0
 16 48  1  0  0  0  0
 17 18  2  0  0  0  0
 17 25  1  0  0  0  0
 18 19  1  0  0  0  0
 19 20  2  0  0  0  0
 19 24  1  0  0  0  0
 20 21  1  0  0  0  0
 20 49  1  0  0  0  0
 21 22  2  0  0  0  0
 21 50  1  0  0  0  0
 22 23  1  0  0  0  0
 22 26  1  0  0  0  0
 23 24  2  0  0  0  0
 23 51  1  0  0  0  0
 24 25  1  0  0  0  0
 26 27  2  0  0  0  0
 26 30  1  0  0  0  0
 27 28  1  0  0  0  0
 27 52  1  0  0  0  0
 28 29  1  0  0  0  0
 28 53  1  0  0  0  0
 29 30  2  0  0  0  0
 30 54  1  0  0  0  0
M  CHG  1   2   1
M  END
