4mg8_ligand
 OpenBabel08222323353D

 49 50  0  0  1  0  0  0  0  0999 V2000
   -7.6530   -5.1250   24.3950 C   0  0  0  0  0  0  0  0  0  0  0  0
   -6.4560   -4.2240   24.4950 C   0  0  0  0  0  0  0  0  0  0  0  0
   -6.6530   -2.9680   23.7350 C   0  0  0  0  0  0  0  0  0  0  0  0
   -5.3430   -2.2170   23.5800 C   0  0  2  0  0  0  0  0  0  0  0  0
   -5.6220   -0.7530   23.2250 C   0  0  0  0  0  0  0  0  0  0  0  0
   -4.5180   -2.8640   22.6240 O   0  0  0  0  0  0  0  0  0  0  0  0
   -3.2220   -2.7530   22.7800 C   0  0  0  0  0  0  0  0  0  0  0  0
   -2.7470   -2.2070   23.7550 O   0  0  0  0  0  0  0  0  0  0  0  0
   -2.3850   -3.2060   21.7030 C   0  0  0  0  0  0  0  0  0  0  0  0
   -1.0260   -3.0230   21.7980 C   0  0  0  0  0  0  0  0  0  0  0  0
   -0.5410   -2.4810   22.9190 O   0  0  0  0  0  0  0  0  0  0  0  0
   -0.1420   -3.3920   20.8250 C   0  0  0  0  0  0  0  0  0  0  0  0
   -0.6040   -3.9410   19.6840 C   0  0  0  0  0  0  0  0  0  0  0  0
    0.2740   -4.2990   18.7470 O   0  0  0  0  0  0  0  0  0  0  0  0
   -1.9420   -4.1200   19.5320 C   0  0  0  0  0  0  0  0  0  0  0  0
   -2.8540   -3.7880   20.4960 C   0  0  0  0  0  0  0  0  0  0  0  0
   -4.1700   -4.0250   20.1890 C   0  0  0  0  0  0  0  0  0  0  0  0
   -4.5920   -5.3680   20.6670 C   0  0  0  0  0  0  0  0  0  0  0  0
   -6.0310   -5.6040   20.5150 C   0  0  0  0  0  0  0  0  0  0  0  0
   -6.4970   -6.8980   21.1750 C   0  0  0  0  0  0  0  0  0  0  0  0
   -6.7970   -6.7690   22.7040 C   0  0  0  0  0  0  0  0  0  0  0  0
   -7.8610   -5.7620   23.0240 C   0  0  1  0  0  0  0  0  0  0  0  0
   -9.0680   -6.4300   22.9870 O   0  0  0  0  0  0  0  0  0  0  0  0
   -8.5481   -4.5331   24.6368 H   0  0  0  0  0  0  0  0  0  0  0  0
   -7.5366   -5.9321   25.1333 H   0  0  0  0  0  0  0  0  0  0  0  0
   -5.5783   -4.7507   24.0924 H   0  0  0  0  0  0  0  0  0  0  0  0
   -6.2823   -3.9774   25.5528 H   0  0  0  0  0  0  0  0  0  0  0  0
   -7.3717   -2.3313   24.2718 H   0  0  0  0  0  0  0  0  0  0  0  0
   -7.0500   -3.2090   22.7379 H   0  0  0  0  0  0  0  0  0  0  0  0
   -4.8166   -2.2356   24.5457 H   0  0  0  0  0  0  0  0  0  0  0  0
   -4.6692   -0.2146   23.1141 H   0  0  0  0  0  0  0  0  0  0  0  0
   -6.2148   -0.2879   24.0264 H   0  0  0  0  0  0  0  0  0  0  0  0
   -6.1822   -0.7053   22.2796 H   0  0  0  0  0  0  0  0  0  0  0  0
   -0.9154   -1.6161   23.0390 H   0  0  0  0  0  0  0  0  0  0  0  0
    0.9223   -3.2447   20.9689 H   0  0  0  0  0  0  0  0  0  0  0  0
    0.7655   -3.5358   18.4670 H   0  0  0  0  0  0  0  0  0  0  0  0
   -2.3040   -4.5459   18.6032 H   0  0  0  0  0  0  0  0  0  0  0  0
   -4.3004   -3.9736   19.0980 H   0  0  0  0  0  0  0  0  0  0  0  0
   -4.7958   -3.2586   20.6696 H   0  0  0  0  0  0  0  0  0  0  0  0
   -4.3326   -5.4585   21.7321 H   0  0  0  0  0  0  0  0  0  0  0  0
   -4.0488   -6.1317   20.0911 H   0  0  0  0  0  0  0  0  0  0  0  0
   -6.2664   -5.6538   19.4416 H   0  0  0  0  0  0  0  0  0  0  0  0
   -6.5740   -4.7630   20.9709 H   0  0  0  0  0  0  0  0  0  0  0  0
   -5.7108   -7.6556   21.0410 H   0  0  0  0  0  0  0  0  0  0  0  0
   -7.4163   -7.2303   20.6705 H   0  0  0  0  0  0  0  0  0  0  0  0
   -5.8704   -6.4706   23.2163 H   0  0  0  0  0  0  0  0  0  0  0  0
   -7.1232   -7.7505   23.0784 H   0  0  0  0  0  0  0  0  0  0  0  0
   -7.8526   -4.9687   22.2621 H   0  0  0  0  0  0  0  0  0  0  0  0
   -9.7710   -5.8226   23.1856 H   0  0  0  0  0  0  0  0  0  0  0  0
  1  2  1  0  0  0  0
  1 22  1  0  0  0  0
  1 24  1  0  0  0  0
  1 25  1  0  0  0  0
  2  3  1  0  0  0  0
  2 26  1  0  0  0  0
  2 27  1  0  0  0  0
  3  4  1  0  0  0  0
  3 28  1  0  0  0  0
  3 29  1  0  0  0  0
  4  5  1  0  0  0  0
  4  6  1  0  0  0  0
  4 30  1  1  0  0  0
  5 31  1  0  0  0  0
  5 32  1  0  0  0  0
  5 33  1  0  0  0  0
  6  7  1  0  0  0  0
  7  8  2  0  0  0  0
  7  9  1  0  0  0  0
  9 10  2  0  0  0  0
  9 16  1  0  0  0  0
 10 11  1  0  0  0  0
 10 12  1  0  0  0  0
 11 34  1  0  0  0  0
 12 13  2  0  0  0  0
 12 35  1  0  0  0  0
 13 14  1  0  0  0  0
 13 15  1  0  0  0  0
 14 36  1  0  0  0  0
 15 16  2  0  0  0  0
 15 37  1  0  0  0  0
 16 17  1  0  0  0  0
 17 18  1  0  0  0  0
 17 38  1  0  0  0  0
 17 39  1  0  0  0  0
 18 19  1  0  0  0  0
 18 40  1  0  0  0  0
 18 41  1  0  0  0  0
 19 20  1  0  0  0  0
 19 42  1  0  0  0  0
 19 43  1  0  0  0  0
 20 21  1  0  0  0  0
 20 44  1  0  0  0  0
 20 45  1  0  0  0  0
 21 22  1  0  0  0  0
 21 46  1  0  0  0  0
 21 47  1  0  0  0  0
 22 23  1  0  0  0  0
 22 48  1  6  0  0  0
 23 49  1  0  0  0  0
M  END
