4mgc_ligand
 OpenBabel08222323353D

 28 29  0  0  0  0  0  0  0  0999 V2000
   -2.0230   -4.9330   22.2060 O   0  0  0  0  0  0  0  0  0  0  0  0
   -2.5600   -5.1590   20.9780 C   0  0  0  0  0  0  0  0  0  0  0  0
   -1.7400   -5.4750   19.9020 C   0  0  0  0  0  0  0  0  0  0  0  0
   -2.3030   -5.7260   18.6610 C   0  0  0  0  0  0  0  0  0  0  0  0
   -1.4970   -6.0140   17.6060 O   0  0  0  0  0  0  0  0  0  0  0  0
   -3.6860   -5.6810   18.5150 C   0  0  0  0  0  0  0  0  0  0  0  0
   -4.4920   -5.3800   19.6120 C   0  0  0  0  0  0  0  0  0  0  0  0
   -3.9490   -5.1750   20.8790 C   0  0  0  0  0  0  0  0  0  0  0  0
   -4.7320   -4.8090   21.9890 C   0  0  0  0  0  0  0  0  0  0  0  0
   -4.1910   -4.3810   23.0060 O   0  0  0  0  0  0  0  0  0  0  0  0
   -6.1260   -4.9640   21.9520 C   0  0  0  0  0  0  0  0  0  0  0  0
   -6.7520   -5.7820   21.0150 C   0  0  0  0  0  0  0  0  0  0  0  0
   -8.1290   -5.9770   21.0380 C   0  0  0  0  0  0  0  0  0  0  0  0
   -8.9020   -5.4000   22.0400 C   0  0  0  0  0  0  0  0  0  0  0  0
  -10.2480   -5.5930   22.0700 O   0  0  0  0  0  0  0  0  0  0  0  0
   -8.2910   -4.6250   23.0100 C   0  0  0  0  0  0  0  0  0  0  0  0
   -6.9160   -4.4610   22.9850 C   0  0  0  0  0  0  0  0  0  0  0  0
   -6.3030   -3.6850   23.9150 O   0  0  0  0  0  0  0  0  0  0  0  0
   -2.7176   -4.7315   22.8219 H   0  0  0  0  0  0  0  0  0  0  0  0
   -0.6651   -5.5250   20.0326 H   0  0  0  0  0  0  0  0  0  0  0  0
   -0.9939   -6.7967   17.7977 H   0  0  0  0  0  0  0  0  0  0  0  0
   -4.1363   -5.8798   17.5492 H   0  0  0  0  0  0  0  0  0  0  0  0
   -5.5648   -5.3037   19.4764 H   0  0  0  0  0  0  0  0  0  0  0  0
   -6.1564   -6.2749   20.2552 H   0  0  0  0  0  0  0  0  0  0  0  0
   -8.6016   -6.5811   20.2719 H   0  0  0  0  0  0  0  0  0  0  0  0
  -10.6164   -5.1317   22.8143 H   0  0  0  0  0  0  0  0  0  0  0  0
   -8.8839   -4.1500   23.7833 H   0  0  0  0  0  0  0  0  0  0  0  0
   -5.3667   -3.6804   23.7546 H   0  0  0  0  0  0  0  0  0  0  0  0
  1  2  1  0  0  0  0
  1 19  1  0  0  0  0
  2  3  2  0  0  0  0
  2  8  1  0  0  0  0
  3  4  1  0  0  0  0
  3 20  1  0  0  0  0
  4  5  1  0  0  0  0
  4  6  2  0  0  0  0
  5 21  1  0  0  0  0
  6  7  1  0  0  0  0
  6 22  1  0  0  0  0
  7  8  2  0  0  0  0
  7 23  1  0  0  0  0
  8  9  1  0  0  0  0
  9 10  2  0  0  0  0
  9 11  1  0  0  0  0
 11 12  2  0  0  0  0
 11 17  1  0  0  0  0
 12 13  1  0  0  0  0
 12 24  1  0  0  0  0
 13 14  2  0  0  0  0
 13 25  1  0  0  0  0
 14 15  1  0  0  0  0
 14 16  1  0  0  0  0
 15 26  1  0  0  0  0
 16 17  2  0  0  0  0
 16 27  1  0  0  0  0
 17 18  1  0  0  0  0
 18 28  1  0  0  0  0
M  END
