4mh7_ligand
 OpenBabel08222323353D

 62 63  0  0  1  0  0  0  0  0999 V2000
   12.9460   16.6330   20.2150 C   0  0  0  0  0  0  0  0  0  0  0  0
   13.1140   18.1280   20.3040 C   0  0  0  0  0  0  0  0  0  0  0  0
   13.0620   18.8060   18.9310 C   0  0  0  0  0  0  0  0  0  0  0  0
   14.2780   19.7490   18.7160 C   0  0  0  0  0  0  0  0  0  0  0  0
   14.2250   20.3330   17.3860 N   0  0  0  0  0  0  0  0  0  0  0  0
   14.9140   19.6650   16.2990 C   0  0  0  0  0  0  0  0  0  0  0  0
   16.0140   20.2190   15.7490 N   0  0  0  0  0  0  0  0  0  0  0  0
   16.6720   19.6000   14.7400 C   0  0  0  0  0  0  0  0  0  0  0  0
   16.2260   18.3570   14.2380 C   0  0  0  0  0  0  0  0  0  0  0  0
   16.8540   17.5260   13.1000 C   0  0  0  0  0  0  0  0  0  0  0  0
   16.2610   16.4890   12.8830 O   0  0  0  0  0  0  0  0  0  0  0  0
   18.0300   17.7870   12.2590 N   0  0  0  0  0  0  0  0  0  0  0  0
   18.9050   18.9470   12.3160 C   0  0  0  0  0  0  0  0  0  0  0  0
   18.4560   16.8110   11.2330 C   0  0  0  0  0  0  0  0  0  0  0  0
   19.7600   16.1450   11.7790 C   0  0  0  0  0  0  0  0  0  0  0  0
   20.9720   16.3160   10.8860 C   0  0  0  0  0  0  0  0  0  0  0  0
   22.2490   15.7450   11.5440 C   0  0  0  0  0  0  0  0  0  0  0  0
   15.0650   17.8160   14.8560 C   0  0  0  0  0  0  0  0  0  0  0  0
   14.4770   16.5320   14.4530 N   0  0  0  0  0  0  0  0  0  0  0  0
   13.3330   16.0450   15.1560 C   0  0  2  0  0  0  0  0  0  0  0  0
   13.8250   15.2570   16.3740 C   0  0  0  0  0  0  0  0  0  0  0  0
   12.6660   14.6350   17.1300 C   0  0  0  0  0  0  0  0  0  0  0  0
   11.7810   13.8060   16.2360 C   0  0  1  0  0  0  0  0  0  0  0  0
   10.6190   13.4410   16.9590 O   0  0  0  0  0  0  0  0  0  0  0  0
   11.3450   14.5570   14.9690 C   0  0  0  0  0  0  0  0  0  0  0  0
   12.5120   15.1860   14.2320 C   0  0  0  0  0  0  0  0  0  0  0  0
   14.4510   18.4840   15.8560 N   0  0  0  0  0  0  0  0  0  0  0  0
   12.9910   16.1983   21.2244 H   0  0  0  0  0  0  0  0  0  0  0  0
   13.7516   16.2096   19.5972 H   0  0  0  0  0  0  0  0  0  0  0  0
   11.9727   16.3999   19.7585 H   0  0  0  0  0  0  0  0  0  0  0  0
   14.0865   18.3468   20.7690 H   0  0  0  0  0  0  0  0  0  0  0  0
   12.3076   18.5371   20.9304 H   0  0  0  0  0  0  0  0  0  0  0  0
   12.1357   19.3947   18.8577 H   0  0  0  0  0  0  0  0  0  0  0  0
   13.0673   18.0319   18.1495 H   0  0  0  0  0  0  0  0  0  0  0  0
   15.2091   19.1733   18.8242 H   0  0  0  0  0  0  0  0  0  0  0  0
   14.2538   20.5518   19.4676 H   0  0  0  0  0  0  0  0  0  0  0  0
   13.7065   21.2071   17.2184 H   0  0  0  0  0  0  0  0  0  0  0  0
   17.5528   20.0646   14.3118 H   0  0  0  0  0  0  0  0  0  0  0  0
   19.6950   18.8480   11.5570 H   0  0  0  0  0  0  0  0  0  0  0  0
   19.3619   19.0129   13.3144 H   0  0  0  0  0  0  0  0  0  0  0  0
   18.3200   19.8576   12.1196 H   0  0  0  0  0  0  0  0  0  0  0  0
   18.6593   17.3230   10.2809 H   0  0  0  0  0  0  0  0  0  0  0  0
   17.6748   16.0516   11.0815 H   0  0  0  0  0  0  0  0  0  0  0  0
   19.5714   15.0681   11.9003 H   0  0  0  0  0  0  0  0  0  0  0  0
   19.9892   16.5897   12.7586 H   0  0  0  0  0  0  0  0  0  0  0  0
   21.1212   17.3877   10.6880 H   0  0  0  0  0  0  0  0  0  0  0  0
   20.7934   15.7892    9.9370 H   0  0  0  0  0  0  0  0  0  0  0  0
   23.1049   15.8872   10.8678 H   0  0  0  0  0  0  0  0  0  0  0  0
   22.1116   14.6715   11.7407 H   0  0  0  0  0  0  0  0  0  0  0  0
   22.4394   16.2700   12.4917 H   0  0  0  0  0  0  0  0  0  0  0  0
   14.8830   15.9914   13.6760 H   0  0  0  0  0  0  0  0  0  0  0  0
   12.7190   16.8916   15.4968 H   0  0  0  0  0  0  0  0  0  0  0  0
   14.3678   15.9377   17.0463 H   0  0  0  0  0  0  0  0  0  0  0  0
   14.5020   14.4589   16.0354 H   0  0  0  0  0  0  0  0  0  0  0  0
   12.0632   15.4389   17.5777 H   0  0  0  0  0  0  0  0  0  0  0  0
   13.0676   13.9909   17.9262 H   0  0  0  0  0  0  0  0  0  0  0  0
   12.3299   12.9002   15.9389 H   0  0  0  0  0  0  0  0  0  0  0  0
   10.0534   12.9173   16.4037 H   0  0  0  0  0  0  0  0  0  0  0  0
   10.6401   15.3514   15.2555 H   0  0  0  0  0  0  0  0  0  0  0  0
   10.8435   13.8477   14.2942 H   0  0  0  0  0  0  0  0  0  0  0  0
   13.1491   14.3893   13.8204 H   0  0  0  0  0  0  0  0  0  0  0  0
   12.1259   15.8078   13.4109 H   0  0  0  0  0  0  0  0  0  0  0  0
  1  2  1  0  0  0  0
  1 28  1  0  0  0  0
  1 29  1  0  0  0  0
  1 30  1  0  0  0  0
  2  3  1  0  0  0  0
  2 31  1  0  0  0  0
  2 32  1  0  0  0  0
  3  4  1  0  0  0  0
  3 33  1  0  0  0  0
  3 34  1  0  0  0  0
  4  5  1  0  0  0  0
  4 35  1  0  0  0  0
  4 36  1  0  0  0  0
  5  6  1  0  0  0  0
  5 37  1  0  0  0  0
  6  7  2  0  0  0  0
  6 27  1  0  0  0  0
  7  8  1  0  0  0  0
  8  9  2  0  0  0  0
  8 38  1  0  0  0  0
  9 10  1  0  0  0  0
  9 18  1  0  0  0  0
 10 11  2  0  0  0  0
 10 12  1  0  0  0  0
 12 13  1  0  0  0  0
 12 14  1  0  0  0  0
 13 39  1  0  0  0  0
 13 40  1  0  0  0  0
 13 41  1  0  0  0  0
 14 15  1  0  0  0  0
 14 42  1  0  0  0  0
 14 43  1  0  0  0  0
 15 16  1  0  0  0  0
 15 44  1  0  0  0  0
 15 45  1  0  0  0  0
 16 17  1  0  0  0  0
 16 46  1  0  0  0  0
 16 47  1  0  0  0  0
 17 48  1  0  0  0  0
 17 49  1  0  0  0  0
 17 50  1  0  0  0  0
 18 19  1  0  0  0  0
 18 27  2  0  0  0  0
 19 20  1  0  0  0  0
 19 51  1  0  0  0  0
 20 21  1  0  0  0  0
 20 26  1  0  0  0  0
 20 52  1  1  0  0  0
 21 22  1  0  0  0  0
 21 53  1  0  0  0  0
 21 54  1  0  0  0  0
 22 23  1  0  0  0  0
 22 55  1  0  0  0  0
 22 56  1  0  0  0  0
 23 24  1  0  0  0  0
 23 25  1  0  0  0  0
 23 57  1  6  0  0  0
 24 58  1  0  0  0  0
 25 26  1  0  0  0  0
 25 59  1  0  0  0  0
 25 60  1  0  0  0  0
 26 61  1  0  0  0  0
 26 62  1  0  0  0  0
M  END
