4mhs_ligand
 OpenBabel08222323353D

 53 55  0  0  1  0  0  0  0  0999 V2000
   38.1490   28.0520   37.2000 C   0  0  0  0  0  0  0  0  0  0  0  0
   39.0380   28.5470   38.1600 C   0  0  0  0  0  0  0  0  0  0  0  0
   40.3370   28.0360   38.2380 C   0  0  0  0  0  0  0  0  0  0  0  0
   40.7530   27.0220   37.3690 C   0  0  0  0  0  0  0  0  0  0  0  0
   39.8630   26.5460   36.4010 C   0  0  0  0  0  0  0  0  0  0  0  0
   38.5510   27.0460   36.3050 C   0  0  0  0  0  0  0  0  0  0  0  0
   37.6530   26.5600   35.3230 C   0  0  0  0  0  0  0  0  0  0  0  0
   38.0810   26.3290   33.9980 C   0  0  0  0  0  0  0  0  0  0  0  0
   37.2060   25.8470   33.0170 C   0  0  0  0  0  0  0  0  0  0  0  0
   36.3120   26.3020   35.6460 C   0  0  0  0  0  0  0  0  0  0  0  0
   35.4300   25.8280   34.6710 C   0  0  0  0  0  0  0  0  0  0  0  0
   35.8580   25.5990   33.3510 C   0  0  0  0  0  0  0  0  0  0  0  0
   34.8880   25.1320   32.4500 C   0  0  0  0  0  0  0  0  0  0  0  0
   35.2170   24.5630   31.0660 C   0  0  0  0  0  0  0  0  0  0  0  0
   34.0760   24.0340   30.1710 C   0  0  0  0  0  0  0  0  0  0  0  0
   32.8880   24.1030   30.5250 O   0  0  0  0  0  0  0  0  0  0  0  0
   34.4870   23.5530   28.9860 N   0  0  0  0  0  0  0  0  0  0  0  0
   33.5370   22.9850   28.0190 C   0  0  2  0  0  0  0  0  0  0  0  0
   33.4570   21.5530   28.3160 O   0  0  0  0  0  0  0  0  0  0  0  0
   32.3840   20.9560   27.5600 C   0  0  2  0  0  0  0  0  0  0  0  0
   32.2320   19.5040   27.9530 C   0  0  0  0  0  0  0  0  0  0  0  0
   33.2910   18.8020   27.3070 O   0  0  0  0  0  0  0  0  0  0  0  0
   32.6030   21.1240   26.0040 C   0  0  1  0  0  0  0  0  0  0  0  0
   31.4330   20.6620   25.3100 O   0  0  0  0  0  0  0  0  0  0  0  0
   32.8960   22.5870   25.6160 C   0  0  2  0  0  0  0  0  0  0  0  0
   33.2860   22.6240   24.2300 O   0  0  0  0  0  0  0  0  0  0  0  0
   34.0090   23.1690   26.5630 C   0  0  1  0  0  0  0  0  0  0  0  0
   34.2710   24.5520   26.2850 O   0  0  0  0  0  0  0  0  0  0  0  0
   37.1413   28.4479   37.1460 H   0  0  0  0  0  0  0  0  0  0  0  0
   38.7199   29.3263   38.8430 H   0  0  0  0  0  0  0  0  0  0  0  0
   41.0264   28.4283   38.9769 H   0  0  0  0  0  0  0  0  0  0  0  0
   41.7529   26.6102   37.4449 H   0  0  0  0  0  0  0  0  0  0  0  0
   40.1902   25.7767   35.7110 H   0  0  0  0  0  0  0  0  0  0  0  0
   39.1128   26.5298   33.7333 H   0  0  0  0  0  0  0  0  0  0  0  0
   37.5614   25.6659   32.0091 H   0  0  0  0  0  0  0  0  0  0  0  0
   35.9585   26.4712   36.6567 H   0  0  0  0  0  0  0  0  0  0  0  0
   34.3973   25.6333   34.9370 H   0  0  0  0  0  0  0  0  0  0  0  0
   34.2113   25.9807   32.2718 H   0  0  0  0  0  0  0  0  0  0  0  0
   34.3455   24.3354   32.9801 H   0  0  0  0  0  0  0  0  0  0  0  0
   35.9154   23.7275   31.2213 H   0  0  0  0  0  0  0  0  0  0  0  0
   35.7209   25.3623   30.5029 H   0  0  0  0  0  0  0  0  0  0  0  0
   35.4600   23.5820   28.7569 H   0  0  0  0  0  0  0  0  0  0  0  0
   32.5519   23.4585   28.1431 H   0  0  0  0  0  0  0  0  0  0  0  0
   31.4519   21.4779   27.8223 H   0  0  0  0  0  0  0  0  0  0  0  0
   31.2584   19.1182   27.6165 H   0  0  0  0  0  0  0  0  0  0  0  0
   32.3125   19.3943   29.0445 H   0  0  0  0  0  0  0  0  0  0  0  0
   34.1251   19.1497   27.6002 H   0  0  0  0  0  0  0  0  0  0  0  0
   33.4629   20.5070   25.7041 H   0  0  0  0  0  0  0  0  0  0  0  0
   30.6810   21.1738   25.5839 H   0  0  0  0  0  0  0  0  0  0  0  0
   31.9819   23.1859   25.7417 H   0  0  0  0  0  0  0  0  0  0  0  0
   33.4697   23.5212   23.9777 H   0  0  0  0  0  0  0  0  0  0  0  0
   34.9394   22.6022   26.4111 H   0  0  0  0  0  0  0  0  0  0  0  0
   34.5644   24.6431   25.3861 H   0  0  0  0  0  0  0  0  0  0  0  0
  1  2  2  0  0  0  0
  1  6  1  0  0  0  0
  1 29  1  0  0  0  0
  2  3  1  0  0  0  0
  2 30  1  0  0  0  0
  3  4  2  0  0  0  0
  3 31  1  0  0  0  0
  4  5  1  0  0  0  0
  4 32  1  0  0  0  0
  5  6  2  0  0  0  0
  5 33  1  0  0  0  0
  6  7  1  0  0  0  0
  7  8  2  0  0  0  0
  7 10  1  0  0  0  0
  8  9  1  0  0  0  0
  8 34  1  0  0  0  0
  9 12  2  0  0  0  0
  9 35  1  0  0  0  0
 10 11  2  0  0  0  0
 10 36  1  0  0  0  0
 11 12  1  0  0  0  0
 11 37  1  0  0  0  0
 12 13  1  0  0  0  0
 13 14  1  0  0  0  0
 13 38  1  0  0  0  0
 13 39  1  0  0  0  0
 14 15  1  0  0  0  0
 14 40  1  0  0  0  0
 14 41  1  0  0  0  0
 15 16  2  0  0  0  0
 15 17  1  0  0  0  0
 17 18  1  0  0  0  0
 17 42  1  0  0  0  0
 18 19  1  0  0  0  0
 18 27  1  0  0  0  0
 18 43  1  1  0  0  0
 19 20  1  0  0  0  0
 20 21  1  0  0  0  0
 20 23  1  0  0  0  0
 20 44  1  1  0  0  0
 21 22  1  0  0  0  0
 21 45  1  0  0  0  0
 21 46  1  0  0  0  0
 22 47  1  0  0  0  0
 23 24  1  0  0  0  0
 23 25  1  0  0  0  0
 23 48  1  6  0  0  0
 24 49  1  0  0  0  0
 25 26  1  0  0  0  0
 25 27  1  0  0  0  0
 25 50  1  1  0  0  0
 26 51  1  0  0  0  0
 27 28  1  0  0  0  0
 27 52  1  6  0  0  0
 28 53  1  0  0  0  0
M  END
