4mi3_ligand
 OpenBabel08222323353D

 55 56  0  0  1  0  0  0  0  0999 V2000
   40.7160   27.1100   34.9900 C   0  0  0  0  0  0  0  0  0  0  0  0
   39.9490   28.1510   34.1610 C   0  0  0  0  0  0  0  0  0  0  0  0
   39.4910   29.2820   35.0850 C   0  0  0  0  0  0  0  0  0  0  0  0
   38.8340   27.5850   33.4280 C   0  0  0  0  0  0  0  0  0  0  0  0
   38.7170   27.8910   32.0590 C   0  0  0  0  0  0  0  0  0  0  0  0
   37.6830   27.3810   31.2730 C   0  0  0  0  0  0  0  0  0  0  0  0
   37.8630   26.7430   34.0060 C   0  0  0  0  0  0  0  0  0  0  0  0
   36.8090   26.2340   33.2290 C   0  0  0  0  0  0  0  0  0  0  0  0
   36.7260   26.5470   31.8510 C   0  0  0  0  0  0  0  0  0  0  0  0
   35.6780   26.0620   31.0320 C   0  0  0  0  0  0  0  0  0  0  0  0
   35.9600   24.6980   30.3560 C   0  0  1  0  0  0  0  0  0  0  0  0
   36.6460   23.7510   31.3130 C   0  0  0  0  0  0  0  0  0  0  0  0
   34.6410   24.0690   29.8210 C   0  0  0  0  0  0  0  0  0  0  0  0
   33.5510   24.1720   30.3810 O   0  0  0  0  0  0  0  0  0  0  0  0
   34.7920   23.4460   28.6610 N   0  0  0  0  0  0  0  0  0  0  0  0
   33.6690   22.8650   27.9410 C   0  0  2  0  0  0  0  0  0  0  0  0
   33.5760   21.4590   28.2000 O   0  0  0  0  0  0  0  0  0  0  0  0
   32.3910   20.9380   27.5810 C   0  0  2  0  0  0  0  0  0  0  0  0
   32.2450   19.4920   28.0210 C   0  0  0  0  0  0  0  0  0  0  0  0
   33.2840   18.7650   27.3500 O   0  0  0  0  0  0  0  0  0  0  0  0
   32.4710   21.0910   26.0200 C   0  0  1  0  0  0  0  0  0  0  0  0
   31.2610   20.6190   25.3920 O   0  0  0  0  0  0  0  0  0  0  0  0
   32.7160   22.5500   25.5990 C   0  0  2  0  0  0  0  0  0  0  0  0
   33.0170   22.6200   24.1890 O   0  0  0  0  0  0  0  0  0  0  0  0
   33.9140   23.1180   26.4230 C   0  0  1  0  0  0  0  0  0  0  0  0
   34.1010   24.5310   26.1750 O   0  0  0  0  0  0  0  0  0  0  0  0
   41.5455   27.6017   35.5193 H   0  0  0  0  0  0  0  0  0  0  0  0
   41.1164   26.3326   34.3227 H   0  0  0  0  0  0  0  0  0  0  0  0
   40.0354   26.6502   35.7217 H   0  0  0  0  0  0  0  0  0  0  0  0
   40.6464   28.5729   33.4224 H   0  0  0  0  0  0  0  0  0  0  0  0
   38.9402   30.0332   34.4999 H   0  0  0  0  0  0  0  0  0  0  0  0
   40.3689   29.7524   35.5518 H   0  0  0  0  0  0  0  0  0  0  0  0
   38.8346   28.8733   35.8674 H   0  0  0  0  0  0  0  0  0  0  0  0
   39.4526   28.5427   31.6015 H   0  0  0  0  0  0  0  0  0  0  0  0
   37.6239   27.6314   30.2200 H   0  0  0  0  0  0  0  0  0  0  0  0
   37.9298   26.4864   35.0571 H   0  0  0  0  0  0  0  0  0  0  0  0
   36.0576   25.6001   33.6858 H   0  0  0  0  0  0  0  0  0  0  0  0
   35.4906   26.8034   30.2413 H   0  0  0  0  0  0  0  0  0  0  0  0
   34.7780   25.9553   31.6554 H   0  0  0  0  0  0  0  0  0  0  0  0
   36.6316   24.8703   29.5020 H   0  0  0  0  0  0  0  0  0  0  0  0
   36.8341   22.7920   30.8081 H   0  0  0  0  0  0  0  0  0  0  0  0
   36.0016   23.5841   32.1887 H   0  0  0  0  0  0  0  0  0  0  0  0
   37.6017   24.1874   31.6388 H   0  0  0  0  0  0  0  0  0  0  0  0
   35.7084   23.3728   28.2674 H   0  0  0  0  0  0  0  0  0  0  0  0
   32.7341   23.3524   28.2545 H   0  0  0  0  0  0  0  0  0  0  0  0
   31.5183   21.5055   27.9364 H   0  0  0  0  0  0  0  0  0  0  0  0
   31.2580   19.1025   27.7309 H   0  0  0  0  0  0  0  0  0  0  0  0
   32.3653   19.4107   29.1114 H   0  0  0  0  0  0  0  0  0  0  0  0
   34.1294   19.1168   27.6032 H   0  0  0  0  0  0  0  0  0  0  0  0
   33.3128   20.4804   25.6615 H   0  0  0  0  0  0  0  0  0  0  0  0
   30.5222   21.1241   25.7109 H   0  0  0  0  0  0  0  0  0  0  0  0
   31.8144   23.1452   25.8057 H   0  0  0  0  0  0  0  0  0  0  0  0
   33.1659   23.5253   23.9427 H   0  0  0  0  0  0  0  0  0  0  0  0
   34.8291   22.5885   26.1195 H   0  0  0  0  0  0  0  0  0  0  0  0
   33.3137   25.0017   26.4223 H   0  0  0  0  0  0  0  0  0  0  0  0
  1  2  1  0  0  0  0
  1 27  1  0  0  0  0
  1 28  1  0  0  0  0
  1 29  1  0  0  0  0
  2  3  1  0  0  0  0
  2  4  1  0  0  0  0
  2 30  1  0  0  0  0
  3 31  1  0  0  0  0
  3 32  1  0  0  0  0
  3 33  1  0  0  0  0
  4  5  2  0  0  0  0
  4  7  1  0  0  0  0
  5  6  1  0  0  0  0
  5 34  1  0  0  0  0
  6  9  2  0  0  0  0
  6 35  1  0  0  0  0
  7  8  2  0  0  0  0
  7 36  1  0  0  0  0
  8  9  1  0  0  0  0
  8 37  1  0  0  0  0
  9 10  1  0  0  0  0
 10 11  1  0  0  0  0
 10 38  1  0  0  0  0
 10 39  1  0  0  0  0
 11 12  1  0  0  0  0
 11 13  1  0  0  0  0
 11 40  1  6  0  0  0
 12 41  1  0  0  0  0
 12 42  1  0  0  0  0
 12 43  1  0  0  0  0
 13 14  2  0  0  0  0
 13 15  1  0  0  0  0
 15 16  1  0  0  0  0
 15 44  1  0  0  0  0
 16 17  1  0  0  0  0
 16 25  1  0  0  0  0
 16 45  1  1  0  0  0
 17 18  1  0  0  0  0
 18 19  1  0  0  0  0
 18 21  1  0  0  0  0
 18 46  1  1  0  0  0
 19 20  1  0  0  0  0
 19 47  1  0  0  0  0
 19 48  1  0  0  0  0
 20 49  1  0  0  0  0
 21 22  1  0  0  0  0
 21 23  1  0  0  0  0
 21 50  1  6  0  0  0
 22 51  1  0  0  0  0
 23 24  1  0  0  0  0
 23 25  1  0  0  0  0
 23 52  1  1  0  0  0
 24 53  1  0  0  0  0
 25 26  1  0  0  0  0
 25 54  1  6  0  0  0
 26 55  1  0  0  0  0
M  END
