4mi6_ligand
 OpenBabel08222323353D

 56 58  0  0  1  0  0  0  0  0999 V2000
   37.1360   26.3190   33.9310 C   0  0  0  0  0  0  0  0  0  0  0  0
   37.4140   27.0580   35.1110 C   0  0  0  0  0  0  0  0  0  0  0  0
   36.4290   27.0990   36.1010 C   0  0  0  0  0  0  0  0  0  0  0  0
   36.6410   28.2250   37.1380 C   0  0  0  0  0  0  0  0  0  0  0  0
   38.0910   28.3100   37.5930 C   0  0  0  0  0  0  0  0  0  0  0  0
   39.0440   28.4650   36.4080 C   0  0  0  0  0  0  0  0  0  0  0  0
   38.6610   27.6990   35.2790 C   0  0  0  0  0  0  0  0  0  0  0  0
   39.5990   27.6050   34.2650 C   0  0  0  0  0  0  0  0  0  0  0  0
   39.3180   26.8820   33.1080 C   0  0  0  0  0  0  0  0  0  0  0  0
   38.1100   26.2000   32.9250 C   0  0  0  0  0  0  0  0  0  0  0  0
   37.9400   25.5730   31.6760 C   0  0  0  0  0  0  0  0  0  0  0  0
   37.0490   24.3490   31.6030 C   0  0  0  0  0  0  0  0  0  0  0  0
   36.8540   24.1000   30.0660 C   0  0  0  0  0  0  0  0  0  0  0  0
   35.4060   23.8310   29.5820 C   0  0  0  0  0  0  0  0  0  0  0  0
   34.4020   24.1780   30.2030 O   0  0  0  0  0  0  0  0  0  0  0  0
   35.3430   23.2230   28.4000 N   0  0  0  0  0  0  0  0  0  0  0  0
   34.0690   22.8610   27.7810 C   0  0  2  0  0  0  0  0  0  0  0  0
   33.8150   21.4550   28.0440 O   0  0  0  0  0  0  0  0  0  0  0  0
   32.5890   20.9920   27.4480 C   0  0  2  0  0  0  0  0  0  0  0  0
   32.3380   19.5490   27.8490 C   0  0  0  0  0  0  0  0  0  0  0  0
   33.3850   18.7530   27.2650 O   0  0  0  0  0  0  0  0  0  0  0  0
   32.6730   21.1660   25.9100 C   0  0  1  0  0  0  0  0  0  0  0  0
   31.4380   20.7280   25.2900 O   0  0  0  0  0  0  0  0  0  0  0  0
   32.9380   22.6210   25.5410 C   0  0  2  0  0  0  0  0  0  0  0  0
   33.1430   22.7120   24.1290 O   0  0  0  0  0  0  0  0  0  0  0  0
   34.1950   23.1390   26.2800 C   0  0  1  0  0  0  0  0  0  0  0  0
   34.3620   24.5680   26.0800 O   0  0  0  0  0  0  0  0  0  0  0  0
   36.1692   25.8450   33.8057 H   0  0  0  0  0  0  0  0  0  0  0  0
   36.4274   26.1347   36.6302 H   0  0  0  0  0  0  0  0  0  0  0  0
   35.4540   27.2525   35.6154 H   0  0  0  0  0  0  0  0  0  0  0  0
   36.0045   28.0274   38.0131 H   0  0  0  0  0  0  0  0  0  0  0  0
   36.3534   29.1851   36.6847 H   0  0  0  0  0  0  0  0  0  0  0  0
   38.3481   27.3909   38.1400 H   0  0  0  0  0  0  0  0  0  0  0  0
   38.2059   29.1776   38.2594 H   0  0  0  0  0  0  0  0  0  0  0  0
   40.0482   28.1451   36.7229 H   0  0  0  0  0  0  0  0  0  0  0  0
   39.0712   29.5257   36.1178 H   0  0  0  0  0  0  0  0  0  0  0  0
   40.5587   28.0974   34.3722 H   0  0  0  0  0  0  0  0  0  0  0  0
   40.0623   26.8464   32.3207 H   0  0  0  0  0  0  0  0  0  0  0  0
   38.9376   25.2713   31.3243 H   0  0  0  0  0  0  0  0  0  0  0  0
   37.5204   26.3229   30.9893 H   0  0  0  0  0  0  0  0  0  0  0  0
   36.0826   24.5412   32.0919 H   0  0  0  0  0  0  0  0  0  0  0  0
   37.5352   23.4846   32.0788 H   0  0  0  0  0  0  0  0  0  0  0  0
   37.4651   23.2282   29.7895 H   0  0  0  0  0  0  0  0  0  0  0  0
   37.2230   24.9898   29.5348 H   0  0  0  0  0  0  0  0  0  0  0  0
   36.1934   23.0070   27.9203 H   0  0  0  0  0  0  0  0  0  0  0  0
   33.2533   23.4665   28.2028 H   0  0  0  0  0  0  0  0  0  0  0  0
   31.7561   21.6052   27.8225 H   0  0  0  0  0  0  0  0  0  0  0  0
   31.3591   19.2184   27.4715 H   0  0  0  0  0  0  0  0  0  0  0  0
   32.3597   19.4538   28.9446 H   0  0  0  0  0  0  0  0  0  0  0  0
   34.2262   19.0487   27.5926 H   0  0  0  0  0  0  0  0  0  0  0  0
   33.5008   20.5485   25.5312 H   0  0  0  0  0  0  0  0  0  0  0  0
   30.7159   21.2473   25.6238 H   0  0  0  0  0  0  0  0  0  0  0  0
   32.0705   23.2340   25.8268 H   0  0  0  0  0  0  0  0  0  0  0  0
   33.3088   23.6169   23.8919 H   0  0  0  0  0  0  0  0  0  0  0  0
   35.0791   22.6157   25.8870 H   0  0  0  0  0  0  0  0  0  0  0  0
   33.5998   25.0248   26.4158 H   0  0  0  0  0  0  0  0  0  0  0  0
  1  2  2  0  0  0  0
  1 10  1  0  0  0  0
  1 28  1  0  0  0  0
  2  3  1  0  0  0  0
  2  7  1  0  0  0  0
  3  4  1  0  0  0  0
  3 29  1  0  0  0  0
  3 30  1  0  0  0  0
  4  5  1  0  0  0  0
  4 31  1  0  0  0  0
  4 32  1  0  0  0  0
  5  6  1  0  0  0  0
  5 33  1  0  0  0  0
  5 34  1  0  0  0  0
  6  7  1  0  0  0  0
  6 35  1  0  0  0  0
  6 36  1  0  0  0  0
  7  8  2  0  0  0  0
  8  9  1  0  0  0  0
  8 37  1  0  0  0  0
  9 10  2  0  0  0  0
  9 38  1  0  0  0  0
 10 11  1  0  0  0  0
 11 12  1  0  0  0  0
 11 39  1  0  0  0  0
 11 40  1  0  0  0  0
 12 13  1  0  0  0  0
 12 41  1  0  0  0  0
 12 42  1  0  0  0  0
 13 14  1  0  0  0  0
 13 43  1  0  0  0  0
 13 44  1  0  0  0  0
 14 15  2  0  0  0  0
 14 16  1  0  0  0  0
 16 17  1  0  0  0  0
 16 45  1  0  0  0  0
 17 18  1  0  0  0  0
 17 26  1  0  0  0  0
 17 46  1  1  0  0  0
 18 19  1  0  0  0  0
 19 20  1  0  0  0  0
 19 22  1  0  0  0  0
 19 47  1  1  0  0  0
 20 21  1  0  0  0  0
 20 48  1  0  0  0  0
 20 49  1  0  0  0  0
 21 50  1  0  0  0  0
 22 23  1  0  0  0  0
 22 24  1  0  0  0  0
 22 51  1  6  0  0  0
 23 52  1  0  0  0  0
 24 25  1  0  0  0  0
 24 26  1  0  0  0  0
 24 53  1  1  0  0  0
 25 54  1  0  0  0  0
 26 27  1  0  0  0  0
 26 55  1  6  0  0  0
 27 56  1  0  0  0  0
M  END
