4mjq_ligand
 OpenBabel08222323353D

 31 32  0  0  0  0  0  0  0  0999 V2000
  -21.7930    0.7740  -23.6200 C   0  0  0  0  0  0  0  0  0  0  0  0
  -22.1010   -0.1210  -22.6120 C   0  0  0  0  0  0  0  0  0  0  0  0
  -23.4000   -0.5370  -22.4280 C   0  0  0  0  0  0  0  0  0  0  0  0
  -26.3900   -0.6700  -21.6450 C   0  0  0  0  0  0  0  0  0  0  0  0
  -25.7870   -0.0870  -20.5320 C   0  0  0  0  0  0  0  0  0  0  0  0
  -27.4420   -0.9960  -19.0080 C   0  0  0  0  0  0  0  0  0  0  0  0
  -30.6150   -1.5820  -19.5800 C   0  0  0  0  0  0  0  0  0  0  0  0
  -30.5480   -0.3710  -19.5470 O   0  5  0  0  0  0  0  0  0  0  0  0
  -31.8110   -2.1610  -19.5190 O   0  0  0  0  0  0  0  0  0  0  0  0
  -29.3720   -2.4220  -19.6810 C   0  0  0  0  0  0  0  0  0  0  0  0
  -28.1390   -1.6090  -20.0420 C   0  0  0  0  0  0  0  0  0  0  0  0
  -26.2900   -0.2540  -19.2470 C   0  0  0  0  0  0  0  0  0  0  0  0
  -27.6250   -1.4710  -21.4370 C   0  0  0  0  0  0  0  0  0  0  0  0
  -28.2460   -2.0510  -22.5010 N   0  0  0  0  0  0  0  0  0  0  0  0
  -25.8200   -0.5050  -23.0270 C   0  0  0  0  0  0  0  0  0  0  0  0
  -26.4830   -0.8090  -24.0060 O   0  0  0  0  0  0  0  0  0  0  0  0
  -24.4110   -0.0420  -23.2430 C   0  0  0  0  0  0  0  0  0  0  0  0
  -20.0100    1.2930  -23.8370 Br  0  0  0  0  0  0  0  0  0  0  0  0
  -22.7870    1.2660  -24.4590 C   0  0  0  0  0  0  0  0  0  0  0  0
  -24.1000    0.8520  -24.2670 C   0  0  0  0  0  0  0  0  0  0  0  0
  -21.3168   -0.4963  -21.9645 H   0  0  0  0  0  0  0  0  0  0  0  0
  -23.6346   -1.2511  -21.6470 H   0  0  0  0  0  0  0  0  0  0  0  0
  -24.8973    0.5160  -20.6729 H   0  0  0  0  0  0  0  0  0  0  0  0
  -27.8044   -1.0984  -17.9915 H   0  0  0  0  0  0  0  0  0  0  0  0
  -29.5272   -3.1876  -20.4554 H   0  0  0  0  0  0  0  0  0  0  0  0
  -29.1987   -2.9113  -18.7112 H   0  0  0  0  0  0  0  0  0  0  0  0
  -25.7726    0.2045  -18.4120 H   0  0  0  0  0  0  0  0  0  0  0  0
  -27.8610   -1.9331  -23.4490 H   0  0  0  0  0  0  0  0  0  0  0  0
  -29.1007   -2.6076  -22.3578 H   0  0  0  0  0  0  0  0  0  0  0  0
  -22.5412    1.9630  -25.2520 H   0  0  0  0  0  0  0  0  0  0  0  0
  -24.8845    1.2252  -24.9153 H   0  0  0  0  0  0  0  0  0  0  0  0
  1 18  1  0  0  0  0
  1 19  1  0  0  0  0
  2  1  2  0  0  0  0
  2 21  1  0  0  0  0
  3  2  1  0  0  0  0
  3 22  1  0  0  0  0
  4  5  2  0  0  0  0
  4 13  1  0  0  0  0
  5 12  1  0  0  0  0
  5 23  1  0  0  0  0
  6 24  1  0  0  0  0
  7  8  1  0  0  0  0
  7  9  2  0  0  0  0
 10  7  1  0  0  0  0
 10 25  1  0  0  0  0
 10 26  1  0  0  0  0
 11  6  1  0  0  0  0
 11 10  1  0  0  0  0
 12  6  2  0  0  0  0
 12 27  1  0  0  0  0
 13 11  2  0  0  0  0
 13 14  1  0  0  0  0
 14 28  1  0  0  0  0
 14 29  1  0  0  0  0
 15  4  1  0  0  0  0
 15 16  2  0  0  0  0
 15 17  1  0  0  0  0
 17  3  2  0  0  0  0
 17 20  1  0  0  0  0
 19 20  2  0  0  0  0
 19 30  1  0  0  0  0
 20 31  1  0  0  0  0
M  CHG  1   8  -1
M  END
