4mjr_ligand
 OpenBabel08222323353D

 30 32  0  0  1  0  0  0  0  0999 V2000
  -19.4960    0.5810  -24.4290 Cl  0  0  0  0  0  0  0  0  0  0  0  0
  -21.1980    1.0570  -24.1850 C   0  0  0  0  0  0  0  0  0  0  0  0
  -21.5820    2.1790  -24.9040 C   0  0  0  0  0  0  0  0  0  0  0  0
  -22.8600    2.7040  -24.8170 C   0  0  0  0  0  0  0  0  0  0  0  0
  -23.7800    2.0740  -24.0030 C   0  0  0  0  0  0  0  0  0  0  0  0
  -25.0900    2.3170  -23.7010 N   0  0  0  0  0  0  0  0  0  0  0  0
  -22.0700    0.3740  -23.3450 C   0  0  0  0  0  0  0  0  0  0  0  0
  -23.3550    0.8780  -23.2460 C   0  0  0  0  0  0  0  0  0  0  0  0
  -24.5250    0.4380  -22.4930 C   0  0  0  0  0  0  0  0  0  0  0  0
  -24.7430   -0.6170  -21.6150 C   0  0  0  0  0  0  0  0  0  0  0  0
  -26.0310   -0.7360  -21.0540 C   0  0  0  0  0  0  0  0  0  0  0  0
  -25.5940    1.4010  -22.8290 C   0  0  0  0  0  0  0  0  0  0  0  0
  -26.8380    1.2370  -22.2460 C   0  0  0  0  0  0  0  0  0  0  0  0
  -27.0620    0.1840  -21.3590 C   0  0  0  0  0  0  0  0  0  0  0  0
  -28.4500    0.0640  -20.8310 C   0  0  2  0  0  0  0  0  0  0  0  0
  -28.6220    0.4360  -19.3820 C   0  0  0  0  0  0  0  0  0  0  0  0
  -28.9040   -1.3520  -21.0260 C   0  0  0  0  0  0  0  0  0  0  0  0
  -29.1980   -1.7960  -22.2460 O   0  5  0  0  0  0  0  0  0  0  0  0
  -29.0090   -2.1080  -20.0730 O   0  0  0  0  0  0  0  0  0  0  0  0
  -20.8595    2.6595  -25.5538 H   0  0  0  0  0  0  0  0  0  0  0  0
  -23.1327    3.5915  -25.3765 H   0  0  0  0  0  0  0  0  0  0  0  0
  -25.6332    3.1019  -24.0880 H   0  0  0  0  0  0  0  0  0  0  0  0
  -21.7595   -0.5076  -22.7960 H   0  0  0  0  0  0  0  0  0  0  0  0
  -23.9546   -1.3200  -21.3713 H   0  0  0  0  0  0  0  0  0  0  0  0
  -26.2367   -1.5529  -20.3718 H   0  0  0  0  0  0  0  0  0  0  0  0
  -27.6400    1.9281  -22.4790 H   0  0  0  0  0  0  0  0  0  0  0  0
  -29.0927    0.7313  -21.4240 H   0  0  0  0  0  0  0  0  0  0  0  0
  -28.2915    1.4738  -19.2282 H   0  0  0  0  0  0  0  0  0  0  0  0
  -28.0181   -0.2376  -18.7563 H   0  0  0  0  0  0  0  0  0  0  0  0
  -29.6820    0.3436  -19.1030 H   0  0  0  0  0  0  0  0  0  0  0  0
  1  2  1  0  0  0  0
  2  3  2  0  0  0  0
  2  7  1  0  0  0  0
  3  4  1  0  0  0  0
  3 20  1  0  0  0  0
  4  5  2  0  0  0  0
  4 21  1  0  0  0  0
  5  6  1  0  0  0  0
  5  8  1  0  0  0  0
  6 12  1  0  0  0  0
  6 22  1  0  0  0  0
  7  8  2  0  0  0  0
  7 23  1  0  0  0  0
  8  9  1  0  0  0  0
  9 10  2  0  0  0  0
  9 12  1  0  0  0  0
 10 11  1  0  0  0  0
 10 24  1  0  0  0  0
 11 14  2  0  0  0  0
 11 25  1  0  0  0  0
 12 13  2  0  0  0  0
 13 14  1  0  0  0  0
 13 26  1  0  0  0  0
 14 15  1  0  0  0  0
 15 16  1  0  0  0  0
 15 17  1  0  0  0  0
 15 27  1  6  0  0  0
 16 28  1  0  0  0  0
 16 29  1  0  0  0  0
 16 30  1  0  0  0  0
 17 18  1  0  0  0  0
 17 19  2  0  0  0  0
M  CHG  1  18  -1
M  END
