4mka_ligand
 OpenBabel08222323353D

 61 64  0  0  0  0  0  0  0  0999 V2000
  -10.1590    9.6890    2.5600 N   0  0  0  0  0  0  0  0  0  0  0  0
  -10.5670    8.4510    1.5850 S   0  0  0  0  0  0  0  0  0  0  0  0
  -10.3440    8.9040    0.2470 O   0  0  0  0  0  0  0  0  0  0  0  0
   -9.8700    7.2880    2.0470 O   0  0  0  0  0  0  0  0  0  0  0  0
  -12.2850    8.1970    1.7930 C   0  0  0  0  0  0  0  0  0  0  0  0
   -9.7620    9.7090    3.9400 C   0  0  0  0  0  0  0  0  0  0  0  0
   -9.1230   10.8600    4.3830 C   0  0  0  0  0  0  0  0  0  0  0  0
   -8.7060   10.9660    5.6970 C   0  0  0  0  0  0  0  0  0  0  0  0
   -8.9160    9.9290    6.6120 C   0  0  0  0  0  0  0  0  0  0  0  0
   -8.5030   10.0220    7.9900 C   0  0  0  0  0  0  0  0  0  0  0  0
   -8.7180    9.0260    8.8540 C   0  0  0  0  0  0  0  0  0  0  0  0
   -9.3290    7.8440    8.4340 O   0  0  0  0  0  0  0  0  0  0  0  0
   -9.7840    7.6430    7.1180 C   0  0  0  0  0  0  0  0  0  0  0  0
  -10.2990    6.5690    6.8780 O   0  0  0  0  0  0  0  0  0  0  0  0
   -9.5660    8.7520    6.1700 C   0  0  0  0  0  0  0  0  0  0  0  0
   -9.9910    8.6590    4.8330 C   0  0  0  0  0  0  0  0  0  0  0  0
   -8.5570    9.0410   10.3220 C   0  0  0  0  0  0  0  0  0  0  0  0
   -7.4530    9.6110   10.9910 C   0  0  0  0  0  0  0  0  0  0  0  0
   -7.3730    9.6600   12.4150 C   0  0  0  0  0  0  0  0  0  0  0  0
   -8.4440    9.1150   13.1270 C   0  0  0  0  0  0  0  0  0  0  0  0
   -9.5350    8.5400   12.4830 C   0  0  0  0  0  0  0  0  0  0  0  0
   -9.5850    8.5160   11.0950 C   0  0  0  0  0  0  0  0  0  0  0  0
  -10.6280    7.9120   13.2680 C   0  0  0  0  0  0  0  0  0  0  0  0
  -11.0580    6.5780   12.8700 C   0  0  0  0  0  0  0  0  0  0  0  0
  -10.5900    5.9340   11.9270 O   0  0  0  0  0  0  0  0  0  0  0  0
  -12.1240    6.0730   13.6180 N   0  0  0  0  0  0  0  0  0  0  0  0
  -12.7490    6.7400   14.6240 C   0  0  0  0  0  0  0  0  0  0  0  0
  -12.3540    7.9880   14.9770 C   0  0  0  0  0  0  0  0  0  0  0  0
  -11.2690    8.5790   14.2870 C   0  0  0  0  0  0  0  0  0  0  0  0
   -6.1780   10.2430   13.2240 C   0  0  0  0  0  0  0  0  0  0  0  0
   -6.5230   10.3950   14.7150 C   0  0  0  0  0  0  0  0  0  0  0  0
   -4.9340    9.3280   13.1580 C   0  0  0  0  0  0  0  0  0  0  0  0
   -5.7800   11.6370   12.7340 C   0  0  0  0  0  0  0  0  0  0  0  0
   -6.4430   10.1970   10.2520 O   0  0  0  0  0  0  0  0  0  0  0  0
   -5.4240    9.3510    9.7270 C   0  0  0  0  0  0  0  0  0  0  0  0
  -10.1901   10.5884    2.1240 H   0  0  0  0  0  0  0  0  0  0  0  0
  -12.6130    7.3656    1.1517 H   0  0  0  0  0  0  0  0  0  0  0  0
  -12.8275    9.1120    1.5131 H   0  0  0  0  0  0  0  0  0  0  0  0
  -12.4950    7.9535    2.8449 H   0  0  0  0  0  0  0  0  0  0  0  0
   -8.9503   11.6796    3.6948 H   0  0  0  0  0  0  0  0  0  0  0  0
   -8.2065   11.8706    6.0246 H   0  0  0  0  0  0  0  0  0  0  0  0
   -8.0036   10.9261    8.3351 H   0  0  0  0  0  0  0  0  0  0  0  0
  -10.5007    7.7651    4.4921 H   0  0  0  0  0  0  0  0  0  0  0  0
   -8.4246    9.1407   14.2105 H   0  0  0  0  0  0  0  0  0  0  0  0
  -10.4460    8.0775   10.6037 H   0  0  0  0  0  0  0  0  0  0  0  0
  -13.5757    6.2670   15.1520 H   0  0  0  0  0  0  0  0  0  0  0  0
  -12.0791    7.9514   16.0415 H   0  0  0  0  0  0  0  0  0  0  0  0
  -13.2214    8.6514   14.8448 H   0  0  0  0  0  0  0  0  0  0  0  0
  -10.9360    9.5774   14.5667 H   0  0  0  0  0  0  0  0  0  0  0  0
   -5.6563   10.8085   15.2516 H   0  0  0  0  0  0  0  0  0  0  0  0
   -6.7784    9.4107   15.1345 H   0  0  0  0  0  0  0  0  0  0  0  0
   -7.3809   11.0745   14.8255 H   0  0  0  0  0  0  0  0  0  0  0  0
   -4.6404    9.1836   12.1078 H   0  0  0  0  0  0  0  0  0  0  0  0
   -5.1712    8.3535   13.6097 H   0  0  0  0  0  0  0  0  0  0  0  0
   -4.1051    9.7958   13.7094 H   0  0  0  0  0  0  0  0  0  0  0  0
   -6.6544   12.3032   12.7740 H   0  0  0  0  0  0  0  0  0  0  0  0
   -5.4161   11.5715   11.6980 H   0  0  0  0  0  0  0  0  0  0  0  0
   -4.9835   12.0384   13.3778 H   0  0  0  0  0  0  0  0  0  0  0  0
   -4.6969    9.9571    9.1667 H   0  0  0  0  0  0  0  0  0  0  0  0
   -5.8757    8.6064    9.0551 H   0  0  0  0  0  0  0  0  0  0  0  0
   -4.9126    8.8364   10.5538 H   0  0  0  0  0  0  0  0  0  0  0  0
  1  2  1  0  0  0  0
  1  6  1  0  0  0  0
  1 36  1  0  0  0  0
  2  3  2  0  0  0  0
  2  4  2  0  0  0  0
  2  5  1  0  0  0  0
  5 37  1  0  0  0  0
  5 38  1  0  0  0  0
  5 39  1  0  0  0  0
  6  7  2  0  0  0  0
  6 16  1  0  0  0  0
  7  8  1  0  0  0  0
  7 40  1  0  0  0  0
  8  9  2  0  0  0  0
  8 41  1  0  0  0  0
  9 10  1  0  0  0  0
  9 15  1  0  0  0  0
 10 11  2  0  0  0  0
 10 42  1  0  0  0  0
 11 12  1  0  0  0  0
 11 17  1  0  0  0  0
 12 13  1  0  0  0  0
 13 14  2  0  0  0  0
 13 15  1  0  0  0  0
 15 16  2  0  0  0  0
 16 43  1  0  0  0  0
 17 18  2  0  0  0  0
 17 22  1  0  0  0  0
 18 19  1  0  0  0  0
 18 34  1  0  0  0  0
 19 20  2  0  0  0  0
 19 30  1  0  0  0  0
 20 21  1  0  0  0  0
 20 44  1  0  0  0  0
 21 22  2  0  0  0  0
 21 23  1  0  0  0  0
 22 45  1  0  0  0  0
 23 24  1  0  0  0  0
 23 29  2  0  0  0  0
 24 25  2  0  0  0  0
 24 26  1  0  0  0  0
 26 27  2  0  0  0  0
 27 28  1  0  0  0  0
 27 46  1  0  0  0  0
 28 29  1  0  0  0  0
 28 47  1  0  0  0  0
 28 48  1  0  0  0  0
 29 49  1  0  0  0  0
 30 31  1  0  0  0  0
 30 32  1  0  0  0  0
 30 33  1  0  0  0  0
 31 50  1  0  0  0  0
 31 51  1  0  0  0  0
 31 52  1  0  0  0  0
 32 53  1  0  0  0  0
 32 54  1  0  0  0  0
 32 55  1  0  0  0  0
 33 56  1  0  0  0  0
 33 57  1  0  0  0  0
 33 58  1  0  0  0  0
 34 35  1  0  0  0  0
 35 59  1  0  0  0  0
 35 60  1  0  0  0  0
 35 61  1  0  0  0  0
M  END
