4mlt_ligand
 OpenBabel08222323353D

 17 17  0  0  1  0  0  0  0  0999 V2000
   17.1480    3.6130   13.0310 C   0  0  0  0  0  0  0  0  0  0  0  0
   16.3100    3.3080   14.2400 C   0  0  2  0  0  0  0  0  0  0  0  0
   15.5720    4.3140   14.7430 O   0  0  0  0  0  0  0  0  0  0  0  0
   14.8390    4.0510   15.8140 C   0  0  0  0  0  0  0  0  0  0  0  0
   14.7780    2.8630   16.4170 C   0  0  0  0  0  0  0  0  0  0  0  0
   15.5260    1.7810   15.9380 C   0  0  1  0  0  0  0  0  0  0  0  0
   15.4870    0.2390   16.6670 S   0  0  0  0  0  0  0  0  0  0  0  0
   16.3380    2.0410   14.7750 C   0  0  0  0  0  0  0  0  0  0  0  0
   17.0480    1.0980   14.2750 O   0  0  0  0  0  0  0  0  0  0  0  0
   17.6958    2.7088   12.7270 H   0  0  0  0  0  0  0  0  0  0  0  0
   17.8645    4.4116   13.2735 H   0  0  0  0  0  0  0  0  0  0  0  0
   16.4973    3.9418   12.2073 H   0  0  0  0  0  0  0  0  0  0  0  0
   15.4661    3.0095   13.6007 H   0  0  0  0  0  0  0  0  0  0  0  0
   14.2441    4.8619   16.2318 H   0  0  0  0  0  0  0  0  0  0  0  0
   14.1403    2.7334   17.2902 H   0  0  0  0  0  0  0  0  0  0  0  0
   16.3614    2.0569   16.5983 H   0  0  0  0  0  0  0  0  0  0  0  0
   16.0970   -0.3853   16.1627 H   0  0  0  0  0  0  0  0  0  0  0  0
  1  2  1  0  0  0  0
  1 10  1  0  0  0  0
  1 11  1  0  0  0  0
  1 12  1  0  0  0  0
  2  3  1  0  0  0  0
  2  8  1  0  0  0  0
  2 13  1  6  0  0  0
  3  4  1  0  0  0  0
  4  5  2  0  0  0  0
  4 14  1  0  0  0  0
  5  6  1  0  0  0  0
  5 15  1  0  0  0  0
  6  7  1  0  0  0  0
  6  8  1  0  0  0  0
  6 16  1  1  0  0  0
  7 17  1  0  0  0  0
  8  9  2  0  0  0  0
M  END
