4mm5_ligand
 OpenBabel08222323353D

 38 40  0  0  1  0  0  0  0  0999 V2000
  180.4610  -14.3790   96.8770 Cl  0  0  0  0  0  0  0  0  0  0  0  0
  181.1120  -15.2920   98.1840 C   0  0  0  0  0  0  0  0  0  0  0  0
  180.2820  -15.8700   99.0060 C   0  0  0  0  0  0  0  0  0  0  0  0
  178.5600  -15.7090   98.7710 Cl  0  0  0  0  0  0  0  0  0  0  0  0
  182.4300  -15.3690   98.2930 C   0  0  0  0  0  0  0  0  0  0  0  0
  182.9690  -16.1150   99.3640 C   0  0  0  0  0  0  0  0  0  0  0  0
  182.0840  -16.7890  100.3340 C   0  0  0  0  0  0  0  0  0  0  0  0
  180.7160  -16.5990  100.0350 C   0  0  0  0  0  0  0  0  0  0  0  0
  182.6000  -17.6550  101.5270 C   0  0  1  0  0  0  0  0  0  0  0  0
  183.5690  -18.5400  100.9990 C   0  0  0  0  0  0  0  0  0  0  0  0
  183.3230  -19.2800   99.6730 C   0  0  0  0  0  0  0  0  0  0  0  0
  184.2060  -20.1390   99.1390 C   0  0  0  0  0  0  0  0  0  0  0  0
  185.2570  -20.4030   99.6370 C   0  0  0  0  0  0  0  0  0  0  0  0
  185.6410  -19.9250  100.6950 C   0  0  0  0  0  0  0  0  0  0  0  0
  184.9010  -19.0110  101.4340 C   0  0  0  0  0  0  0  0  0  0  0  0
  185.3850  -18.3780  102.7580 C   0  0  1  0  0  0  0  0  0  0  0  0
  186.7030  -18.1300  102.6010 N   0  3  0  0  0  0  0  0  0  0  0  0
  186.9020  -16.8280  102.0040 C   0  0  0  0  0  0  0  0  0  0  0  0
  184.7200  -16.9390  103.0510 C   0  0  0  0  0  0  0  0  0  0  0  0
  183.2190  -16.8190  102.5850 C   0  0  0  0  0  0  0  0  0  0  0  0
  183.0774  -14.8726   97.5792 H   0  0  0  0  0  0  0  0  0  0  0  0
  184.0445  -16.1935   99.4749 H   0  0  0  0  0  0  0  0  0  0  0  0
  179.9802  -17.0709  100.6761 H   0  0  0  0  0  0  0  0  0  0  0  0
  181.7641  -18.2238  101.9602 H   0  0  0  0  0  0  0  0  0  0  0  0
  182.3935  -19.0995   99.1452 H   0  0  0  0  0  0  0  0  0  0  0  0
  183.9490  -20.6198   98.2021 H   0  0  0  0  0  0  0  0  0  0  0  0
  185.9062  -21.1038   99.1247 H   0  0  0  0  0  0  0  0  0  0  0  0
  186.6089  -20.2304  101.0758 H   0  0  0  0  0  0  0  0  0  0  0  0
  185.1964  -19.0645  103.5965 H   0  0  0  0  0  0  0  0  0  0  0  0
  187.1049  -18.8348  102.0028 H   0  0  0  0  0  0  0  0  0  0  0  0
  187.1556  -18.1554  103.5013 H   0  0  0  0  0  0  0  0  0  0  0  0
  187.9792  -16.6410  101.8828 H   0  0  0  0  0  0  0  0  0  0  0  0
  186.4668  -16.0556  102.6552 H   0  0  0  0  0  0  0  0  0  0  0  0
  186.4115  -16.7970  101.0199 H   0  0  0  0  0  0  0  0  0  0  0  0
  185.3078  -16.1727  102.5244 H   0  0  0  0  0  0  0  0  0  0  0  0
  184.7616  -16.7529  104.1343 H   0  0  0  0  0  0  0  0  0  0  0  0
  182.6142  -16.9884  103.4880 H   0  0  0  0  0  0  0  0  0  0  0  0
  183.0951  -15.7784  102.2506 H   0  0  0  0  0  0  0  0  0  0  0  0
  1  2  1  0  0  0  0
  2  3  2  0  0  0  0
  2  5  1  0  0  0  0
  3  4  1  0  0  0  0
  3  8  1  0  0  0  0
  5  6  2  0  0  0  0
  5 21  1  0  0  0  0
  6  7  1  0  0  0  0
  6 22  1  0  0  0  0
  7  8  2  0  0  0  0
  7  9  1  0  0  0  0
  8 23  1  0  0  0  0
  9 10  1  0  0  0  0
  9 20  1  0  0  0  0
  9 24  1  1  0  0  0
 10 11  2  0  0  0  0
 10 15  1  0  0  0  0
 11 12  1  0  0  0  0
 11 25  1  0  0  0  0
 12 13  2  0  0  0  0
 12 26  1  0  0  0  0
 13 14  1  0  0  0  0
 13 27  1  0  0  0  0
 14 15  2  0  0  0  0
 14 28  1  0  0  0  0
 15 16  1  0  0  0  0
 16 17  1  0  0  0  0
 16 19  1  0  0  0  0
 16 29  1  1  0  0  0
 17 18  1  0  0  0  0
 17 30  1  0  0  0  0
 17 31  1  0  0  0  0
 18 32  1  0  0  0  0
 18 33  1  0  0  0  0
 18 34  1  0  0  0  0
 19 20  1  0  0  0  0
 19 35  1  0  0  0  0
 19 36  1  0  0  0  0
 20 37  1  0  0  0  0
 20 38  1  0  0  0  0
M  CHG  1  17   1
M  END
