4mm8_ligand
 OpenBabel08222323353D

 41 42  0  0  1  0  0  0  0  0999 V2000
  -33.3630   14.6240   16.2070 F   0  0  0  0  0  0  0  0  0  0  0  0
  -33.3990   13.3420   16.5680 C   0  0  0  0  0  0  0  0  0  0  0  0
  -34.3030   13.1470   17.5440 F   0  0  0  0  0  0  0  0  0  0  0  0
  -33.7770   12.5900   15.5180 F   0  0  0  0  0  0  0  0  0  0  0  0
  -32.0390   12.9200   17.0450 C   0  0  0  0  0  0  0  0  0  0  0  0
  -31.9910   11.9500   18.0180 C   0  0  0  0  0  0  0  0  0  0  0  0
  -30.7690   11.5240   18.5040 C   0  0  0  0  0  0  0  0  0  0  0  0
  -29.6240   12.0670   17.9940 C   0  0  0  0  0  0  0  0  0  0  0  0
  -29.6720   13.0490   17.0000 C   0  0  0  0  0  0  0  0  0  0  0  0
  -30.8950   13.4670   16.5290 C   0  0  0  0  0  0  0  0  0  0  0  0
  -28.3610   11.6230   18.4750 O   0  0  0  0  0  0  0  0  0  0  0  0
  -28.3840   10.3450   19.0230 C   0  0  2  0  0  0  0  0  0  0  0  0
  -27.1380   10.0390   19.8080 C   0  0  0  0  0  0  0  0  0  0  0  0
  -26.0960   11.1940   19.5470 C   0  0  0  0  0  0  0  0  0  0  0  0
  -25.5150   11.6870   20.7640 N   0  3  0  0  0  0  0  0  0  0  0  0
  -26.3530   12.6870   21.3780 C   0  0  0  0  0  0  0  0  0  0  0  0
  -28.5210    9.2430   17.9750 C   0  0  0  0  0  0  0  0  0  0  0  0
  -29.6330    8.4150   18.0050 C   0  0  0  0  0  0  0  0  0  0  0  0
  -29.7550    7.3870   17.0400 C   0  0  0  0  0  0  0  0  0  0  0  0
  -28.7530    7.2100   16.0800 C   0  0  0  0  0  0  0  0  0  0  0  0
  -27.6370    8.0300   16.0630 C   0  0  0  0  0  0  0  0  0  0  0  0
  -27.5100    9.0600   17.0220 C   0  0  0  0  0  0  0  0  0  0  0  0
  -32.9088   11.5204   18.4030 H   0  0  0  0  0  0  0  0  0  0  0  0
  -30.7200   10.7686   19.2800 H   0  0  0  0  0  0  0  0  0  0  0  0
  -28.7569   13.4756   16.6054 H   0  0  0  0  0  0  0  0  0  0  0  0
  -30.9525   14.2238   15.7551 H   0  0  0  0  0  0  0  0  0  0  0  0
  -29.2494   10.2926   19.7000 H   0  0  0  0  0  0  0  0  0  0  0  0
  -26.7177    9.0770   19.4796 H   0  0  0  0  0  0  0  0  0  0  0  0
  -27.3766    9.9880   20.8806 H   0  0  0  0  0  0  0  0  0  0  0  0
  -26.6075   12.0238   19.0374 H   0  0  0  0  0  0  0  0  0  0  0  0
  -25.2928   10.8073   18.9026 H   0  0  0  0  0  0  0  0  0  0  0  0
  -24.6162   12.0938   20.5574 H   0  0  0  0  0  0  0  0  0  0  0  0
  -25.3966   10.9189   21.4059 H   0  0  0  0  0  0  0  0  0  0  0  0
  -25.8801   13.0426   22.3053 H   0  0  0  0  0  0  0  0  0  0  0  0
  -27.3349   12.2495   21.6116 H   0  0  0  0  0  0  0  0  0  0  0  0
  -26.4833   13.5317   20.6856 H   0  0  0  0  0  0  0  0  0  0  0  0
  -30.3997    8.5535   18.7587 H   0  0  0  0  0  0  0  0  0  0  0  0
  -30.6232    6.7380   17.0447 H   0  0  0  0  0  0  0  0  0  0  0  0
  -28.8511    6.4226   15.3415 H   0  0  0  0  0  0  0  0  0  0  0  0
  -26.8643    7.8823   15.3172 H   0  0  0  0  0  0  0  0  0  0  0  0
  -26.6376    9.7034   17.0205 H   0  0  0  0  0  0  0  0  0  0  0  0
  1  2  1  0  0  0  0
  2  3  1  0  0  0  0
  2  4  1  0  0  0  0
  2  5  1  0  0  0  0
  5  6  2  0  0  0  0
  5 10  1  0  0  0  0
  6  7  1  0  0  0  0
  6 23  1  0  0  0  0
  7  8  2  0  0  0  0
  7 24  1  0  0  0  0
  8  9  1  0  0  0  0
  8 11  1  0  0  0  0
  9 10  2  0  0  0  0
  9 25  1  0  0  0  0
 10 26  1  0  0  0  0
 11 12  1  0  0  0  0
 12 13  1  0  0  0  0
 12 17  1  0  0  0  0
 12 27  1  1  0  0  0
 13 14  1  0  0  0  0
 13 28  1  0  0  0  0
 13 29  1  0  0  0  0
 14 15  1  0  0  0  0
 14 30  1  0  0  0  0
 14 31  1  0  0  0  0
 15 16  1  0  0  0  0
 15 32  1  0  0  0  0
 15 33  1  0  0  0  0
 16 34  1  0  0  0  0
 16 35  1  0  0  0  0
 16 36  1  0  0  0  0
 17 18  2  0  0  0  0
 17 22  1  0  0  0  0
 18 19  1  0  0  0  0
 18 37  1  0  0  0  0
 19 20  2  0  0  0  0
 19 38  1  0  0  0  0
 20 21  1  0  0  0  0
 20 39  1  0  0  0  0
 21 22  2  0  0  0  0
 21 40  1  0  0  0  0
 22 41  1  0  0  0  0
M  CHG  1  15   1
M  END
