4mm9_ligand
 OpenBabel08222323353D

 47 47  0  0  1  0  0  0  0  0999 V2000
  189.5950  -22.0780   97.9380 C   0  0  0  0  0  0  0  0  0  0  0  0
  188.5590  -21.4020   98.5200 O   0  0  0  0  0  0  0  0  0  0  0  0
  188.2860  -20.0490   97.9390 C   0  0  0  0  0  0  0  0  0  0  0  0
  189.3820  -19.0330   98.4310 C   0  0  0  0  0  0  0  0  0  0  0  0
  189.6190  -17.7810   97.5020 C   0  0  0  0  0  0  0  0  0  0  0  0
  190.2900  -16.6000   98.2470 C   0  0  0  0  0  0  0  0  0  0  0  0
  189.4620  -16.2140   99.5300 C   0  0  1  0  0  0  0  0  0  0  0  0
  190.2250  -15.5610  100.5120 N   0  3  0  0  0  0  0  0  0  0  0  0
  189.3480  -15.2270  101.6200 O   0  0  0  0  0  0  0  0  0  0  0  0
  190.0320  -15.2870  102.8310 C   0  0  0  0  0  0  0  0  0  0  0  0
  191.4840  -15.7420  102.6330 C   0  0  0  0  0  0  0  0  0  0  0  0
  191.7090  -17.0670  103.1230 N   0  3  0  0  0  0  0  0  0  0  0  0
  188.1190  -15.6290   99.1500 C   0  0  0  0  0  0  0  0  0  0  0  0
  187.9160  -14.8750   97.9170 C   0  0  0  0  0  0  0  0  0  0  0  0
  186.6720  -14.4130   97.6140 C   0  0  0  0  0  0  0  0  0  0  0  0
  185.5720  -14.6670   98.4730 C   0  0  0  0  0  0  0  0  0  0  0  0
  185.7740  -15.4150   99.6640 C   0  0  0  0  0  0  0  0  0  0  0  0
  187.0370  -15.8890   99.9760 C   0  0  0  0  0  0  0  0  0  0  0  0
  184.2000  -14.1660   98.1330 C   0  0  0  0  0  0  0  0  0  0  0  0
  183.7400  -13.3170   99.0580 F   0  0  0  0  0  0  0  0  0  0  0  0
  184.2030  -13.5630   96.9430 F   0  0  0  0  0  0  0  0  0  0  0  0
  183.3180  -15.2110   98.0690 F   0  0  0  0  0  0  0  0  0  0  0  0
  189.7177  -23.0545   98.4294 H   0  0  0  0  0  0  0  0  0  0  0  0
  190.5209  -21.4941   98.0465 H   0  0  0  0  0  0  0  0  0  0  0  0
  189.3800  -22.2295   96.8699 H   0  0  0  0  0  0  0  0  0  0  0  0
  187.2939  -19.7037   98.2653 H   0  0  0  0  0  0  0  0  0  0  0  0
  188.3101  -20.1103   96.8410 H   0  0  0  0  0  0  0  0  0  0  0  0
  190.3343  -19.5771   98.5145 H   0  0  0  0  0  0  0  0  0  0  0  0
  189.0814  -18.6656   99.4233 H   0  0  0  0  0  0  0  0  0  0  0  0
  188.6474  -17.4439   97.1116 H   0  0  0  0  0  0  0  0  0  0  0  0
  190.2661  -18.0818   96.6649 H   0  0  0  0  0  0  0  0  0  0  0  0
  190.3418  -15.7308   97.5749 H   0  0  0  0  0  0  0  0  0  0  0  0
  191.3070  -16.8926   98.5472 H   0  0  0  0  0  0  0  0  0  0  0  0
  189.2075  -17.1745  100.0018 H   0  0  0  0  0  0  0  0  0  0  0  0
  190.6262  -14.7195  100.1288 H   0  0  0  0  0  0  0  0  0  0  0  0
  190.9623  -16.1694  100.8318 H   0  0  0  0  0  0  0  0  0  0  0  0
  189.5213  -15.9996  103.4954 H   0  0  0  0  0  0  0  0  0  0  0  0
  190.0298  -14.2887  103.2929 H   0  0  0  0  0  0  0  0  0  0  0  0
  192.1483  -15.0488  103.1697 H   0  0  0  0  0  0  0  0  0  0  0  0
  191.7191  -15.7174  101.5587 H   0  0  0  0  0  0  0  0  0  0  0  0
  192.6725  -17.3219  102.9721 H   0  0  0  0  0  0  0  0  0  0  0  0
  191.1099  -17.7127  102.6329 H   0  0  0  0  0  0  0  0  0  0  0  0
  191.5032  -17.1000  104.1092 H   0  0  0  0  0  0  0  0  0  0  0  0
  188.7481  -14.6847   97.2488 H   0  0  0  0  0  0  0  0  0  0  0  0
  186.5199  -13.8435   96.7043 H   0  0  0  0  0  0  0  0  0  0  0  0
  184.9403  -15.6143  100.3276 H   0  0  0  0  0  0  0  0  0  0  0  0
  187.1814  -16.4715  100.8787 H   0  0  0  0  0  0  0  0  0  0  0  0
  1  2  1  0  0  0  0
  1 23  1  0  0  0  0
  1 24  1  0  0  0  0
  1 25  1  0  0  0  0
  2  3  1  0  0  0  0
  3  4  1  0  0  0  0
  3 26  1  0  0  0  0
  3 27  1  0  0  0  0
  4  5  1  0  0  0  0
  4 28  1  0  0  0  0
  4 29  1  0  0  0  0
  5  6  1  0  0  0  0
  5 30  1  0  0  0  0
  5 31  1  0  0  0  0
  6  7  1  0  0  0  0
  6 32  1  0  0  0  0
  6 33  1  0  0  0  0
  7  8  1  0  0  0  0
  7 13  1  0  0  0  0
  7 34  1  1  0  0  0
  8  9  1  0  0  0  0
  8 35  1  0  0  0  0
  8 36  1  0  0  0  0
  9 10  1  0  0  0  0
 10 11  1  0  0  0  0
 10 37  1  0  0  0  0
 10 38  1  0  0  0  0
 11 12  1  0  0  0  0
 11 39  1  0  0  0  0
 11 40  1  0  0  0  0
 12 41  1  0  0  0  0
 12 42  1  0  0  0  0
 12 43  1  0  0  0  0
 13 14  2  0  0  0  0
 13 18  1  0  0  0  0
 14 15  1  0  0  0  0
 14 44  1  0  0  0  0
 15 16  2  0  0  0  0
 15 45  1  0  0  0  0
 16 17  1  0  0  0  0
 16 19  1  0  0  0  0
 17 18  2  0  0  0  0
 17 46  1  0  0  0  0
 18 47  1  0  0  0  0
 19 20  1  0  0  0  0
 19 21  1  0  0  0  0
 19 22  1  0  0  0  0
M  CHG  2   8   1  12   1
M  END
