4mny_ligand
 OpenBabel08222323353D

190193  0  0  1  0  0  0  0  0999 V2000
  -31.5000   -4.6150  -26.1850 N   0  3  0  0  0  0  0  0  0  0  0  0
  -32.2720   -3.6980  -27.0710 C   0  0  0  0  0  0  0  0  0  0  0  0
  -31.3540   -2.8820  -27.9550 C   0  0  0  0  0  0  0  0  0  0  0  0
  -30.2690   -3.3390  -28.3200 O   0  0  0  0  0  0  0  0  0  0  0  0
  -31.7820   -1.6710  -28.2950 N   0  0  0  0  0  0  0  0  0  0  0  0
  -30.9930   -0.7940  -29.1520 C   0  0  2  0  0  0  0  0  0  0  0  0
  -30.8220    0.5950  -28.5460 C   0  0  0  0  0  0  0  0  0  0  0  0
  -31.0070    1.6090  -29.2220 O   0  0  0  0  0  0  0  0  0  0  0  0
  -31.6190   -0.7300  -30.5420 C   0  0  0  0  0  0  0  0  0  0  0  0
  -31.2110   -2.1800  -31.5400 S   0  0  0  0  0  0  0  0  0  0  0  0
  -30.4400    0.6260  -27.2710 N   0  0  0  0  0  0  0  0  0  0  0  0
  -30.0840    1.8780  -26.5990 C   0  0  2  0  0  0  0  0  0  0  0  0
  -28.5980    2.1780  -26.7900 C   0  0  0  0  0  0  0  0  0  0  0  0
  -28.1800    3.3330  -26.7470 O   0  0  0  0  0  0  0  0  0  0  0  0
  -30.4060    1.8070  -25.1030 C   0  0  0  0  0  0  0  0  0  0  0  0
  -31.0420    3.0790  -24.5490 C   0  0  0  0  0  0  0  0  0  0  0  0
  -32.4310    3.3900  -25.1030 C   0  0  0  0  0  0  0  0  0  0  0  0
  -32.9370    4.4950  -24.9030 O   0  0  0  0  0  0  0  0  0  0  0  0
  -33.0570    2.4290  -25.7900 N   0  0  0  0  0  0  0  0  0  0  0  0
  -27.7970    1.1360  -26.9810 N   0  0  0  0  0  0  0  0  0  0  0  0
  -26.3800    1.3240  -27.3000 C   0  0  2  0  0  0  0  0  0  0  0  0
  -26.1090    0.8250  -28.7240 C   0  0  0  0  0  0  0  0  0  0  0  0
  -26.3440   -0.3410  -29.0490 O   0  0  0  0  0  0  0  0  0  0  0  0
  -25.4640    0.6440  -26.2630 C   0  0  0  0  0  0  0  0  0  0  0  0
  -23.9920    0.9190  -26.5770 C   0  0  0  0  0  0  0  0  0  0  0  0
  -25.8020    1.1530  -24.8640 C   0  0  0  0  0  0  0  0  0  0  0  0
  -25.6610    1.7460  -29.5710 N   0  0  0  0  0  0  0  0  0  0  0  0
  -25.3530    1.4710  -30.9730 C   0  0  2  0  0  0  0  0  0  0  0  0
  -24.1860    2.3180  -31.4450 C   0  0  0  0  0  0  0  0  0  0  0  0
  -23.7850    3.2620  -30.7710 O   0  0  0  0  0  0  0  0  0  0  0  0
  -26.5330    1.8480  -31.8610 C   0  0  0  0  0  0  0  0  0  0  0  0
  -27.8030    1.1470  -31.4770 C   0  0  0  0  0  0  0  0  0  0  0  0
  -28.0210   -0.0150  -31.8320 O   0  0  0  0  0  0  0  0  0  0  0  0
  -28.6670    1.8590  -30.7570 N   0  0  0  0  0  0  0  0  0  0  0  0
  -23.6740    1.9930  -32.6300 N   0  0  0  0  0  0  0  0  0  0  0  0
  -22.8320    2.9150  -33.3750 C   0  0  2  0  0  0  0  0  0  0  0  0
  -23.6340    4.1750  -33.6850 C   0  0  0  0  0  0  0  0  0  0  0  0
  -23.1660    5.2920  -33.4590 O   0  0  0  0  0  0  0  0  0  0  0  0
  -22.3270    2.2870  -34.6890 C   0  0  0  0  0  0  0  0  0  0  0  0
  -21.5510    3.2620  -35.5450 C   0  0  0  0  0  0  0  0  0  0  0  0
  -20.2890    3.7120  -35.1620 C   0  0  0  0  0  0  0  0  0  0  0  0
  -22.0860    3.7500  -36.7400 C   0  0  0  0  0  0  0  0  0  0  0  0
  -19.5970    4.6280  -35.9400 C   0  0  0  0  0  0  0  0  0  0  0  0
  -21.4010    4.6550  -37.5260 C   0  0  0  0  0  0  0  0  0  0  0  0
  -20.1570    5.0960  -37.1230 C   0  0  0  0  0  0  0  0  0  0  0  0
  -19.4890    6.0080  -37.9150 O   0  0  0  0  0  0  0  0  0  0  0  0
  -24.8410    3.9790  -34.2130 N   0  0  0  0  0  0  0  0  0  0  0  0
  -25.6930    5.0910  -34.6390 C   0  0  2  0  0  0  0  0  0  0  0  0
  -27.1450    4.7210  -34.4030 C   0  0  0  0  0  0  0  0  0  0  0  0
  -27.4830    3.5400  -34.4710 O   0  0  0  0  0  0  0  0  0  0  0  0
  -25.4720    5.4170  -36.1310 C   0  0  0  0  0  0  0  0  0  0  0  0
  -25.5330    4.0150  -37.2860 S   0  0  0  0  0  0  0  0  0  0  0  0
  -28.0010    5.7170  -34.1030 N   0  0  0  0  0  0  0  0  0  0  0  0
  -29.4310    5.4440  -33.8630 C   0  0  2  0  0  0  0  0  0  0  0  0
  -30.0900    4.5000  -34.8730 C   0  0  0  0  0  0  0  0  0  0  0  0
  -29.9220    4.6660  -36.0810 O   0  0  0  0  0  0  0  0  0  0  0  0
  -30.0550    6.8360  -33.9430 C   0  0  0  0  0  0  0  0  0  0  0  0
  -29.0070    7.7090  -33.3710 C   0  0  0  0  0  0  0  0  0  0  0  0
  -27.6900    7.1390  -33.8670 C   0  0  0  0  0  0  0  0  0  0  0  0
  -30.8540    3.5120  -34.3820 N   0  0  0  0  0  0  0  0  0  0  0  0
  -31.4530    2.5260  -35.2800 C   0  0  2  0  0  0  0  0  0  0  0  0
  -32.3000    3.1140  -36.4080 C   0  0  0  0  0  0  0  0  0  0  0  0
  -32.9730    4.1390  -36.2310 O   0  0  0  0  0  0  0  0  0  0  0  0
  -32.3010    1.6700  -34.3480 C   0  0  0  0  0  0  0  0  0  0  0  0
  -31.6200    1.7770  -33.0380 C   0  0  0  0  0  0  0  0  0  0  0  0
  -31.0880    3.1750  -32.9680 C   0  0  0  0  0  0  0  0  0  0  0  0
  -32.2260    2.4510  -37.5540 N   0  0  0  0  0  0  0  0  0  0  0  0
  -32.9980    2.7700  -38.7450 C   0  0  2  0  0  0  0  0  0  0  0  0
  -33.9350    1.5840  -39.0560 C   0  0  0  0  0  0  0  0  0  0  0  0
  -33.5160    0.4270  -38.9940 O   0  0  0  0  0  0  0  0  0  0  0  0
  -32.0320    3.0510  -39.9130 C   0  0  0  0  0  0  0  0  0  0  0  0
  -32.7650    3.1390  -41.2440 C   0  0  0  0  0  0  0  0  0  0  0  0
  -31.2580    4.3300  -39.6360 C   0  0  0  0  0  0  0  0  0  0  0  0
  -35.2300    1.8530  -39.3400 N   0  0  0  0  0  0  0  0  0  0  0  0
  -36.0890    0.7200  -39.6800 C   0  0  2  0  0  0  0  0  0  0  0  0
  -35.5870   -0.1140  -40.8620 C   0  0  0  0  0  0  0  0  0  0  0  0
  -35.1030    0.4300  -41.8630 O   0  0  0  0  0  0  0  0  0  0  0  0
  -37.4320    1.3890  -40.0090 C   0  0  0  0  0  0  0  0  0  0  0  0
  -37.4280    2.6300  -39.1920 C   0  0  0  0  0  0  0  0  0  0  0  0
  -36.0060    3.1000  -39.1920 C   0  0  0  0  0  0  0  0  0  0  0  0
  -35.6960   -1.4300  -40.7290 N   0  0  0  0  0  0  0  0  0  0  0  0
  -35.1500   -2.3510  -41.7200 C   0  0  2  0  0  0  0  0  0  0  0  0
  -36.0170   -2.4870  -42.9790 C   0  0  0  0  0  0  0  0  0  0  0  0
  -37.2690   -2.3960  -42.9260 O   0  0  0  0  0  0  0  0  0  0  0  0
  -34.9130   -3.7280  -41.0890 C   0  0  0  0  0  0  0  0  0  0  0  0
  -33.9600   -3.7190  -39.5450 S   0  0  0  0  0  0  0  0  0  0  0  0
  -35.3410   -2.7200  -44.1010 N   0  0  0  0  0  0  0  0  0  0  0  0
  -35.9710   -3.0610  -45.3760 C   0  0  2  0  0  0  0  0  0  0  0  0
  -35.4200   -4.3720  -45.9160 C   0  0  0  0  0  0  0  0  0  0  0  0
  -36.1790   -5.2130  -46.4110 O   0  0  0  0  0  0  0  0  0  0  0  0
  -35.7390   -1.9650  -46.4200 C   0  0  0  0  0  0  0  0  0  0  0  0
  -36.3350   -0.5880  -46.1500 C   0  0  0  0  0  0  0  0  0  0  0  0
  -35.8610    0.4040  -47.2040 C   0  0  0  0  0  0  0  0  0  0  0  0
  -37.8530   -0.6430  -46.1120 C   0  0  0  0  0  0  0  0  0  0  0  0
  -34.1000   -4.5450  -45.8240 N   0  0  0  0  0  0  0  0  0  0  0  0
  -32.1380   -5.1430  -25.6104 H   0  0  0  0  0  0  0  0  0  0  0  0
  -30.8857   -4.0749  -25.5960 H   0  0  0  0  0  0  0  0  0  0  0  0
  -30.9544   -5.2472  -26.7495 H   0  0  0  0  0  0  0  0  0  0  0  0
  -32.8681   -3.0155  -26.4474 H   0  0  0  0  0  0  0  0  0  0  0  0
  -32.9431   -4.2948  -27.7062 H   0  0  0  0  0  0  0  0  0  0  0  0
  -32.6670   -1.3532  -27.9548 H   0  0  0  0  0  0  0  0  0  0  0  0
  -29.9905   -1.2352  -29.2532 H   0  0  0  0  0  0  0  0  0  0  0  0
  -31.2495    0.1695  -31.0561 H   0  0  0  0  0  0  0  0  0  0  0  0
  -32.7122   -0.6688  -30.4360 H   0  0  0  0  0  0  0  0  0  0  0  0
  -31.6439   -2.0952  -32.4464 H   0  0  0  0  0  0  0  0  0  0  0  0
  -30.3948   -0.2306  -26.7570 H   0  0  0  0  0  0  0  0  0  0  0  0
  -30.6704    2.6939  -27.0467 H   0  0  0  0  0  0  0  0  0  0  0  0
  -29.4705    1.6201  -24.5553 H   0  0  0  0  0  0  0  0  0  0  0  0
  -31.1014    0.9710  -24.9371 H   0  0  0  0  0  0  0  0  0  0  0  0
  -30.3805    3.9250  -24.7873 H   0  0  0  0  0  0  0  0  0  0  0  0
  -31.1240    2.9739  -23.4571 H   0  0  0  0  0  0  0  0  0  0  0  0
  -33.9677    2.5966  -26.1676 H   0  0  0  0  0  0  0  0  0  0  0  0
  -32.6146    1.5426  -25.9262 H   0  0  0  0  0  0  0  0  0  0  0  0
  -28.1667    0.2099  -26.9059 H   0  0  0  0  0  0  0  0  0  0  0  0
  -26.1657    2.4026  -27.2725 H   0  0  0  0  0  0  0  0  0  0  0  0
  -25.6353   -0.4420  -26.2982 H   0  0  0  0  0  0  0  0  0  0  0  0
  -23.3584    0.4251  -25.8256 H   0  0  0  0  0  0  0  0  0  0  0  0
  -23.8088    2.0034  -26.5554 H   0  0  0  0  0  0  0  0  0  0  0  0
  -23.7505    0.5261  -27.5756 H   0  0  0  0  0  0  0  0  0  0  0  0
  -26.8613    0.9514  -24.6465 H   0  0  0  0  0  0  0  0  0  0  0  0
  -25.6169    2.2361  -24.8132 H   0  0  0  0  0  0  0  0  0  0  0  0
  -25.1714    0.6382  -24.1242 H   0  0  0  0  0  0  0  0  0  0  0  0
  -25.5275    2.6769  -29.2309 H   0  0  0  0  0  0  0  0  0  0  0  0
  -25.1165    0.4030  -31.0893 H   0  0  0  0  0  0  0  0  0  0  0  0
  -26.2878    1.5846  -32.9005 H   0  0  0  0  0  0  0  0  0  0  0  0
  -26.6953    2.9334  -31.7862 H   0  0  0  0  0  0  0  0  0  0  0  0
  -29.5330    1.4508  -30.4682 H   0  0  0  0  0  0  0  0  0  0  0  0
  -28.4501    2.8021  -30.5049 H   0  0  0  0  0  0  0  0  0  0  0  0
  -23.8733    1.0928  -33.0172 H   0  0  0  0  0  0  0  0  0  0  0  0
  -21.9632    3.1819  -32.7554 H   0  0  0  0  0  0  0  0  0  0  0  0
  -23.1941    1.9285  -35.2631 H   0  0  0  0  0  0  0  0  0  0  0  0
  -21.6730    1.4373  -34.4437 H   0  0  0  0  0  0  0  0  0  0  0  0
  -19.8433    3.3420  -34.2458 H   0  0  0  0  0  0  0  0  0  0  0  0
  -23.0645    3.4091  -37.0583 H   0  0  0  0  0  0  0  0  0  0  0  0
  -18.6205    4.9786  -35.6259 H   0  0  0  0  0  0  0  0  0  0  0  0
  -21.8362    5.0158  -38.4509 H   0  0  0  0  0  0  0  0  0  0  0  0
  -20.0109    6.7977  -37.9958 H   0  0  0  0  0  0  0  0  0  0  0  0
  -25.1758    3.0430  -34.3219 H   0  0  0  0  0  0  0  0  0  0  0  0
  -25.4448    5.9805  -34.0413 H   0  0  0  0  0  0  0  0  0  0  0  0
  -24.4818    5.8862  -36.2273 H   0  0  0  0  0  0  0  0  0  0  0  0
  -26.2488    6.1341  -36.4349 H   0  0  0  0  0  0  0  0  0  0  0  0
  -25.3761    4.3474  -38.2246 H   0  0  0  0  0  0  0  0  0  0  0  0
  -29.5632    5.0172  -32.8578 H   0  0  0  0  0  0  0  0  0  0  0  0
  -30.9796    6.8886  -33.3494 H   0  0  0  0  0  0  0  0  0  0  0  0
  -30.2723    7.1116  -34.9855 H   0  0  0  0  0  0  0  0  0  0  0  0
  -29.0459    7.6871  -32.2719 H   0  0  0  0  0  0  0  0  0  0  0  0
  -29.1346    8.7437  -33.7219 H   0  0  0  0  0  0  0  0  0  0  0  0
  -27.3731    7.6324  -34.7976 H   0  0  0  0  0  0  0  0  0  0  0  0
  -26.9024    7.2489  -33.1070 H   0  0  0  0  0  0  0  0  0  0  0  0
  -30.6583    1.9173  -35.7360 H   0  0  0  0  0  0  0  0  0  0  0  0
  -32.3247    0.6252  -34.6913 H   0  0  0  0  0  0  0  0  0  0  0  0
  -33.3280    2.0593  -34.2869 H   0  0  0  0  0  0  0  0  0  0  0  0
  -30.7968    1.0502  -32.9737 H   0  0  0  0  0  0  0  0  0  0  0  0
  -32.3328    1.5970  -32.2198 H   0  0  0  0  0  0  0  0  0  0  0  0
  -31.8242    3.8559  -32.5160 H   0  0  0  0  0  0  0  0  0  0  0  0
  -30.1514    3.2131  -32.3923 H   0  0  0  0  0  0  0  0  0  0  0  0
  -31.5948    1.6769  -37.6030 H   0  0  0  0  0  0  0  0  0  0  0  0
  -33.6053    3.6683  -38.5601 H   0  0  0  0  0  0  0  0  0  0  0  0
  -31.3159    2.2183  -39.9747 H   0  0  0  0  0  0  0  0  0  0  0  0
  -32.0419    3.3398  -42.0482 H   0  0  0  0  0  0  0  0  0  0  0  0
  -33.5032    3.9534  -41.2029 H   0  0  0  0  0  0  0  0  0  0  0  0
  -33.2796    2.1873  -41.4429 H   0  0  0  0  0  0  0  0  0  0  0  0
  -30.7379    4.2421  -38.6707 H   0  0  0  0  0  0  0  0  0  0  0  0
  -31.9551    5.1801  -39.6008 H   0  0  0  0  0  0  0  0  0  0  0  0
  -30.5209    4.4931  -40.4360 H   0  0  0  0  0  0  0  0  0  0  0  0
  -36.1930    0.0564  -38.8090 H   0  0  0  0  0  0  0  0  0  0  0  0
  -38.2723    0.7380  -39.7261 H   0  0  0  0  0  0  0  0  0  0  0  0
  -37.4974    1.6273  -41.0809 H   0  0  0  0  0  0  0  0  0  0  0  0
  -37.7631    2.4168  -38.1662 H   0  0  0  0  0  0  0  0  0  0  0  0
  -38.0845    3.3893  -39.6419 H   0  0  0  0  0  0  0  0  0  0  0  0
  -35.8177    3.7824  -40.0339 H   0  0  0  0  0  0  0  0  0  0  0  0
  -35.7595    3.6065  -38.2472 H   0  0  0  0  0  0  0  0  0  0  0  0
  -36.1653   -1.8005  -39.9274 H   0  0  0  0  0  0  0  0  0  0  0  0
  -34.1755   -1.9505  -42.0362 H   0  0  0  0  0  0  0  0  0  0  0  0
  -34.3717   -4.3478  -41.8189 H   0  0  0  0  0  0  0  0  0  0  0  0
  -35.8940   -4.1797  -40.8803 H   0  0  0  0  0  0  0  0  0  0  0  0
  -33.8574   -4.6639  -39.2094 H   0  0  0  0  0  0  0  0  0  0  0  0
  -34.3434   -2.6583  -44.0707 H   0  0  0  0  0  0  0  0  0  0  0  0
  -37.0530   -3.1701  -45.2106 H   0  0  0  0  0  0  0  0  0  0  0  0
  -36.1595   -2.3236  -47.3711 H   0  0  0  0  0  0  0  0  0  0  0  0
  -34.6516   -1.8368  -46.5250 H   0  0  0  0  0  0  0  0  0  0  0  0
  -35.9798   -0.2456  -45.1669 H   0  0  0  0  0  0  0  0  0  0  0  0
  -36.2970    1.3929  -46.9991 H   0  0  0  0  0  0  0  0  0  0  0  0
  -36.1801    0.0618  -48.1995 H   0  0  0  0  0  0  0  0  0  0  0  0
  -34.7636    0.4739  -47.1746 H   0  0  0  0  0  0  0  0  0  0  0  0
  -38.1747   -1.3638  -45.3459 H   0  0  0  0  0  0  0  0  0  0  0  0
  -38.2332   -0.9584  -47.0948 H   0  0  0  0  0  0  0  0  0  0  0  0
  -38.2500    0.3533  -45.8677 H   0  0  0  0  0  0  0  0  0  0  0  0
  -33.6814   -5.3876  -46.1626 H   0  0  0  0  0  0  0  0  0  0  0  0
  -33.5295   -3.8320  -45.4164 H   0  0  0  0  0  0  0  0  0  0  0  0
  1  2  1  0  0  0  0
  1 96  1  0  0  0  0
  1 97  1  0  0  0  0
  1 98  1  0  0  0  0
  2  3  1  0  0  0  0
  2 99  1  0  0  0  0
  2100  1  0  0  0  0
  3  4  2  0  0  0  0
  3  5  1  0  0  0  0
  5  6  1  0  0  0  0
  5101  1  0  0  0  0
  6  7  1  0  0  0  0
  6  9  1  0  0  0  0
  6102  1  6  0  0  0
  7  8  2  0  0  0  0
  7 11  1  0  0  0  0
  9 10  1  0  0  0  0
  9103  1  0  0  0  0
  9104  1  0  0  0  0
 10105  1  0  0  0  0
 11 12  1  0  0  0  0
 11106  1  0  0  0  0
 12 13  1  0  0  0  0
 12 15  1  0  0  0  0
 12107  1  6  0  0  0
 13 14  2  0  0  0  0
 13 20  1  0  0  0  0
 15 16  1  0  0  0  0
 15108  1  0  0  0  0
 15109  1  0  0  0  0
 16 17  1  0  0  0  0
 16110  1  0  0  0  0
 16111  1  0  0  0  0
 17 18  2  0  0  0  0
 17 19  1  0  0  0  0
 19112  1  0  0  0  0
 19113  1  0  0  0  0
 20 21  1  0  0  0  0
 20114  1  0  0  0  0
 21 22  1  0  0  0  0
 21 24  1  0  0  0  0
 21115  1  1  0  0  0
 22 23  2  0  0  0  0
 22 27  1  0  0  0  0
 24 25  1  0  0  0  0
 24 26  1  0  0  0  0
 24116  1  0  0  0  0
 25117  1  0  0  0  0
 25118  1  0  0  0  0
 25119  1  0  0  0  0
 26120  1  0  0  0  0
 26121  1  0  0  0  0
 26122  1  0  0  0  0
 27 28  1  0  0  0  0
 27123  1  0  0  0  0
 28 29  1  0  0  0  0
 28 31  1  0  0  0  0
 28124  1  6  0  0  0
 29 30  2  0  0  0  0
 29 35  1  0  0  0  0
 31 32  1  0  0  0  0
 31125  1  0  0  0  0
 31126  1  0  0  0  0
 32 33  2  0  0  0  0
 32 34  1  0  0  0  0
 34127  1  0  0  0  0
 34128  1  0  0  0  0
 35 36  1  0  0  0  0
 35129  1  0  0  0  0
 36 37  1  0  0  0  0
 36 39  1  0  0  0  0
 36130  1  1  0  0  0
 37 38  2  0  0  0  0
 37 47  1  0  0  0  0
 39 40  1  0  0  0  0
 39131  1  0  0  0  0
 39132  1  0  0  0  0
 40 41  2  0  0  0  0
 40 42  1  0  0  0  0
 41 43  1  0  0  0  0
 41133  1  0  0  0  0
 42 44  2  0  0  0  0
 42134  1  0  0  0  0
 43 45  2  0  0  0  0
 43135  1  0  0  0  0
 44 45  1  0  0  0  0
 44136  1  0  0  0  0
 45 46  1  0  0  0  0
 46137  1  0  0  0  0
 47 48  1  0  0  0  0
 47138  1  0  0  0  0
 48 49  1  0  0  0  0
 48 51  1  0  0  0  0
 48139  1  1  0  0  0
 49 50  2  0  0  0  0
 49 53  1  0  0  0  0
 51 52  1  0  0  0  0
 51140  1  0  0  0  0
 51141  1  0  0  0  0
 52142  1  0  0  0  0
 53 54  1  0  0  0  0
 53 59  1  0  0  0  0
 54 55  1  0  0  0  0
 54 57  1  0  0  0  0
 54143  1  1  0  0  0
 55 56  2  0  0  0  0
 55 60  1  0  0  0  0
 57 58  1  0  0  0  0
 57144  1  0  0  0  0
 57145  1  0  0  0  0
 58 59  1  0  0  0  0
 58146  1  0  0  0  0
 58147  1  0  0  0  0
 59148  1  0  0  0  0
 59149  1  0  0  0  0
 60 61  1  0  0  0  0
 60 66  1  0  0  0  0
 61 62  1  0  0  0  0
 61 64  1  0  0  0  0
 61150  1  6  0  0  0
 62 63  2  0  0  0  0
 62 67  1  0  0  0  0
 64 65  1  0  0  0  0
 64151  1  0  0  0  0
 64152  1  0  0  0  0
 65 66  1  0  0  0  0
 65153  1  0  0  0  0
 65154  1  0  0  0  0
 66155  1  0  0  0  0
 66156  1  0  0  0  0
 67 68  1  0  0  0  0
 67157  1  0  0  0  0
 68 69  1  0  0  0  0
 68 71  1  0  0  0  0
 68158  1  1  0  0  0
 69 70  2  0  0  0  0
 69 74  1  0  0  0  0
 71 72  1  0  0  0  0
 71 73  1  0  0  0  0
 71159  1  0  0  0  0
 72160  1  0  0  0  0
 72161  1  0  0  0  0
 72162  1  0  0  0  0
 73163  1  0  0  0  0
 73164  1  0  0  0  0
 73165  1  0  0  0  0
 74 75  1  0  0  0  0
 74 80  1  0  0  0  0
 75 76  1  0  0  0  0
 75 78  1  0  0  0  0
 75166  1  1  0  0  0
 76 77  2  0  0  0  0
 76 81  1  0  0  0  0
 78 79  1  0  0  0  0
 78167  1  0  0  0  0
 78168  1  0  0  0  0
 79 80  1  0  0  0  0
 79169  1  0  0  0  0
 79170  1  0  0  0  0
 80171  1  0  0  0  0
 80172  1  0  0  0  0
 81 82  1  0  0  0  0
 81173  1  0  0  0  0
 82 83  1  0  0  0  0
 82 85  1  0  0  0  0
 82174  1  6  0  0  0
 83 84  2  0  0  0  0
 83 87  1  0  0  0  0
 85 86  1  0  0  0  0
 85175  1  0  0  0  0
 85176  1  0  0  0  0
 86177  1  0  0  0  0
 87 88  1  0  0  0  0
 87178  1  0  0  0  0
 88 89  1  0  0  0  0
 88 91  1  0  0  0  0
 88179  1  1  0  0  0
 89 90  2  0  0  0  0
 89 95  1  0  0  0  0
 91 92  1  0  0  0  0
 91180  1  0  0  0  0
 91181  1  0  0  0  0
 92 93  1  0  0  0  0
 92 94  1  0  0  0  0
 92182  1  0  0  0  0
 93183  1  0  0  0  0
 93184  1  0  0  0  0
 93185  1  0  0  0  0
 94186  1  0  0  0  0
 94187  1  0  0  0  0
 94188  1  0  0  0  0
 95189  1  0  0  0  0
 95190  1  0  0  0  0
M  CHG  1   1   1
M  END
