4mot_ligand
 OpenBabel08222323353D

 51 53  0  0  0  0  0  0  0  0999 V2000
   17.3410   24.7710    7.5040 C   0  0  0  0  0  0  0  0  0  0  0  0
   16.9490   25.2050    6.0970 C   0  0  0  0  0  0  0  0  0  0  0  0
   18.0980   25.9330    5.4100 C   0  0  0  0  0  0  0  0  0  0  0  0
   15.0000   28.2980    7.2210 N   0  0  0  0  0  0  0  0  0  0  0  0
   13.9380   28.2930    8.0940 C   0  0  0  0  0  0  0  0  0  0  0  0
   12.9760   29.4440    8.0510 C   0  0  0  0  0  0  0  0  0  0  0  0
   13.1740   30.4420    7.1660 C   0  0  0  0  0  0  0  0  0  0  0  0
   14.2830   30.4150    6.2790 C   0  0  0  0  0  0  0  0  0  0  0  0
   15.1430   29.3640    6.3530 C   0  0  0  0  0  0  0  0  0  0  0  0
   15.7120   31.0180    4.7270 C   0  0  0  0  0  0  0  0  0  0  0  0
   19.1940   32.3240    1.5770 C   0  0  0  0  0  0  0  0  0  0  0  0
   19.8440   33.6390    1.4570 C   0  0  0  0  0  0  0  0  0  0  0  0
   19.2530   34.7780    1.8210 C   0  0  0  0  0  0  0  0  0  0  0  0
   11.0080   28.3350    9.0150 C   0  0  0  0  0  0  0  0  0  0  0  0
   15.7450   26.1430    6.2170 C   0  0  0  0  0  0  0  0  0  0  0  0
   15.9630   27.1970    7.2770 C   0  0  0  0  0  0  0  0  0  0  0  0
   13.7930   27.3560    8.8840 O   0  0  0  0  0  0  0  0  0  0  0  0
   16.4320   29.5110    5.2070 S   0  0  0  0  0  0  0  0  0  0  0  0
   14.6140   31.3610    5.3540 N   0  0  0  0  0  0  0  0  0  0  0  0
   16.2370   31.8000    3.7270 N   0  0  0  0  0  0  0  0  0  0  0  0
   17.4640   31.4930    3.1430 C   0  0  0  0  0  0  0  0  0  0  0  0
   18.1330   30.5290    3.5110 O   0  0  0  0  0  0  0  0  0  0  0  0
   17.8230   32.3620    2.1500 N   0  0  0  0  0  0  0  0  0  0  0  0
   11.8230   29.4480    8.9690 C   0  0  0  0  0  0  0  0  0  0  0  0
    9.9500   28.3670    9.9040 C   0  0  0  0  0  0  0  0  0  0  0  0
    9.7670   29.4800   10.6880 C   0  0  0  0  0  0  0  0  0  0  0  0
   10.5230   30.5890   10.6770 N   0  0  0  0  0  0  0  0  0  0  0  0
   11.5360   30.5090    9.7910 C   0  0  0  0  0  0  0  0  0  0  0  0
   18.2063   24.0939    7.4511 H   0  0  0  0  0  0  0  0  0  0  0  0
   16.4954   24.2491    7.9757 H   0  0  0  0  0  0  0  0  0  0  0  0
   17.6044   25.6566    8.1009 H   0  0  0  0  0  0  0  0  0  0  0  0
   16.6750   24.3210    5.5025 H   0  0  0  0  0  0  0  0  0  0  0  0
   17.7884   26.2344    4.3984 H   0  0  0  0  0  0  0  0  0  0  0  0
   18.9683   25.2637    5.3429 H   0  0  0  0  0  0  0  0  0  0  0  0
   18.3666   26.8265    5.9927 H   0  0  0  0  0  0  0  0  0  0  0  0
   12.4763   31.2774    7.1310 H   0  0  0  0  0  0  0  0  0  0  0  0
   19.6784   31.3980    1.2707 H   0  0  0  0  0  0  0  0  0  0  0  0
   20.8540   33.6841    1.0524 H   0  0  0  0  0  0  0  0  0  0  0  0
   19.9356   35.6206    1.6362 H   0  0  0  0  0  0  0  0  0  0  0  0
   19.0038   34.7360    2.8916 H   0  0  0  0  0  0  0  0  0  0  0  0
   18.3323   34.9168    1.2354 H   0  0  0  0  0  0  0  0  0  0  0  0
   11.1896   27.4739    8.3820 H   0  0  0  0  0  0  0  0  0  0  0  0
   14.8562   25.5508    6.4803 H   0  0  0  0  0  0  0  0  0  0  0  0
   15.5814   26.6392    5.2490 H   0  0  0  0  0  0  0  0  0  0  0  0
   15.8851   26.7177    8.2640 H   0  0  0  0  0  0  0  0  0  0  0  0
   16.9734   27.6129    7.1500 H   0  0  0  0  0  0  0  0  0  0  0  0
   15.7301   32.6028    3.4131 H   0  0  0  0  0  0  0  0  0  0  0  0
   17.1593   33.0269    1.8074 H   0  0  0  0  0  0  0  0  0  0  0  0
    9.2729   27.5240    9.9815 H   0  0  0  0  0  0  0  0  0  0  0  0
    8.9335   29.4609   11.3808 H   0  0  0  0  0  0  0  0  0  0  0  0
   12.1904   31.3703    9.7207 H   0  0  0  0  0  0  0  0  0  0  0  0
  1 29  1  0  0  0  0
  1 30  1  0  0  0  0
  1 31  1  0  0  0  0
  2  1  1  0  0  0  0
  2  3  1  0  0  0  0
  2 32  1  0  0  0  0
  3 33  1  0  0  0  0
  3 34  1  0  0  0  0
  3 35  1  0  0  0  0
  4  5  1  0  0  0  0
  4 16  1  0  0  0  0
  5 17  2  0  0  0  0
  6  5  1  0  0  0  0
  6 24  1  0  0  0  0
  7  6  2  0  0  0  0
  7 36  1  0  0  0  0
  8  7  1  0  0  0  0
  8  9  2  0  0  0  0
  9  4  1  0  0  0  0
 10 18  1  0  0  0  0
 10 19  2  0  0  0  0
 11 12  2  0  0  0  0
 11 37  1  0  0  0  0
 12 13  1  0  0  0  0
 12 38  1  0  0  0  0
 13 39  1  0  0  0  0
 13 40  1  0  0  0  0
 13 41  1  0  0  0  0
 14 25  1  0  0  0  0
 14 42  1  0  0  0  0
 15  2  1  0  0  0  0
 15 43  1  0  0  0  0
 15 44  1  0  0  0  0
 16 15  1  0  0  0  0
 16 45  1  0  0  0  0
 16 46  1  0  0  0  0
 18  9  1  0  0  0  0
 19  8  1  0  0  0  0
 20 10  1  0  0  0  0
 20 47  1  0  0  0  0
 21 20  1  0  0  0  0
 21 22  2  0  0  0  0
 21 23  1  0  0  0  0
 23 11  1  0  0  0  0
 23 48  1  0  0  0  0
 24 14  2  0  0  0  0
 24 28  1  0  0  0  0
 25 26  2  0  0  0  0
 25 49  1  0  0  0  0
 26 27  1  0  0  0  0
 26 50  1  0  0  0  0
 27 28  2  0  0  0  0
 28 51  1  0  0  0  0
M  END
