4mpc_ligand
 OpenBabel08222323353D

 31 33  0  0  0  0  0  0  0  0999 V2000
   10.0180    6.0550  -36.3150 O   0  0  0  0  0  0  0  0  0  0  0  0
   12.0400    2.4430  -36.5460 C   0  0  0  0  0  0  0  0  0  0  0  0
   11.8740    3.0710  -35.2940 C   0  0  0  0  0  0  0  0  0  0  0  0
   10.8270    4.2540  -37.6150 C   0  0  0  0  0  0  0  0  0  0  0  0
   10.6820    4.8600  -36.3870 C   0  0  0  0  0  0  0  0  0  0  0  0
   11.1990    4.2790  -35.2220 C   0  0  0  0  0  0  0  0  0  0  0  0
   11.5230    3.0300  -37.6830 C   0  0  0  0  0  0  0  0  0  0  0  0
   12.2230   -0.1310  -37.3070 O   0  0  0  0  0  0  0  0  0  0  0  0
   17.4600   -0.0900  -38.9160 C   0  0  0  0  0  0  0  0  0  0  0  0
   18.6270    0.6190  -38.9690 C   0  0  0  0  0  0  0  0  0  0  0  0
   18.7040    1.8890  -38.4050 C   0  0  0  0  0  0  0  0  0  0  0  0
   17.6290    2.5180  -37.7490 C   0  0  0  0  0  0  0  0  0  0  0  0
   13.2500    0.4890  -35.3090 O   0  0  0  0  0  0  0  0  0  0  0  0
   12.8940    0.9300  -36.6350 S   0  0  0  0  0  0  0  0  0  0  0  0
   11.6640    2.4010  -38.9380 O   0  0  0  0  0  0  0  0  0  0  0  0
   14.2530    1.1240  -37.5540 N   0  0  0  0  0  0  0  0  0  0  0  0
   15.1240    2.1560  -37.0930 C   0  0  0  0  0  0  0  0  0  0  0  0
   16.4410    1.8060  -37.6970 C   0  0  0  0  0  0  0  0  0  0  0  0
   16.3660    0.5390  -38.2550 C   0  0  0  0  0  0  0  0  0  0  0  0
   14.9860    0.0200  -38.0640 C   0  0  0  0  0  0  0  0  0  0  0  0
    9.1302    5.9424  -36.6338 H   0  0  0  0  0  0  0  0  0  0  0  0
   12.2712    2.6125  -34.3956 H   0  0  0  0  0  0  0  0  0  0  0  0
   10.4153    4.7079  -38.5092 H   0  0  0  0  0  0  0  0  0  0  0  0
   11.0713    4.7735  -34.2658 H   0  0  0  0  0  0  0  0  0  0  0  0
   17.3715   -1.0779  -39.3534 H   0  0  0  0  0  0  0  0  0  0  0  0
   19.4971    0.1901  -39.4528 H   0  0  0  0  0  0  0  0  0  0  0  0
   19.6444    2.4237  -38.4748 H   0  0  0  0  0  0  0  0  0  0  0  0
   17.7250    3.5041  -37.3091 H   0  0  0  0  0  0  0  0  0  0  0  0
   12.1507    1.5920  -38.8326 H   0  0  0  0  0  0  0  0  0  0  0  0
   14.8829    3.0014  -36.4503 H   0  0  0  0  0  0  0  0  0  0  0  0
   14.6187   -0.9843  -38.2697 H   0  0  0  0  0  0  0  0  0  0  0  0
  1 21  1  0  0  0  0
  2  3  2  0  0  0  0
  2  7  1  0  0  0  0
  3  6  1  0  0  0  0
  3 22  1  0  0  0  0
  4  5  1  0  0  0  0
  4 23  1  0  0  0  0
  5  1  1  0  0  0  0
  6  5  2  0  0  0  0
  6 24  1  0  0  0  0
  7  4  2  0  0  0  0
  7 15  1  0  0  0  0
  9 19  1  0  0  0  0
  9 25  1  0  0  0  0
 10  9  2  0  0  0  0
 10 26  1  0  0  0  0
 11 10  1  0  0  0  0
 11 27  1  0  0  0  0
 12 11  2  0  0  0  0
 12 28  1  0  0  0  0
 14  2  1  0  0  0  0
 14  8  2  0  0  0  0
 14 13  2  0  0  0  0
 15 29  1  0  0  0  0
 16 14  1  0  0  0  0
 16 20  1  0  0  0  0
 17 16  1  0  0  0  0
 17 18  2  0  0  0  0
 17 30  1  0  0  0  0
 18 12  1  0  0  0  0
 18 19  1  0  0  0  0
 19 20  2  0  0  0  0
 20 31  1  0  0  0  0
M  END
