4mpe_ligand
 OpenBabel08222323353D

 32 34  0  0  1  0  0  0  0  0999 V2000
   15.0350    2.2380  -37.0670 C   0  0  0  0  0  0  0  0  0  0  0  0
   11.6050    2.4720  -38.9340 O   0  0  0  0  0  0  0  0  0  0  0  0
   11.4320    3.0810  -37.7410 C   0  0  0  0  0  0  0  0  0  0  0  0
   10.7350    4.3000  -37.6560 C   0  0  0  0  0  0  0  0  0  0  0  0
   10.5880    4.8910  -36.4020 C   0  0  0  0  0  0  0  0  0  0  0  0
    9.9640    6.0470  -36.3110 O   0  0  0  0  0  0  0  0  0  0  0  0
   11.1020    4.3400  -35.2390 C   0  0  0  0  0  0  0  0  0  0  0  0
   11.8030    3.1190  -35.3050 C   0  0  0  0  0  0  0  0  0  0  0  0
   11.9450    2.5240  -36.5670 C   0  0  2  0  0  0  0  0  0  0  0  0
   12.8290    1.0200  -36.6230 S   0  0  0  0  0  0  0  0  0  0  0  0
   14.1500    1.2570  -37.6340 N   0  0  0  0  0  0  0  0  0  0  0  0
   16.3860    1.8950  -37.6350 C   0  0  0  0  0  0  0  0  0  0  0  0
   16.3010    0.6250  -38.1810 C   0  0  0  0  0  0  0  0  0  0  0  0
   17.3990    0.0300  -38.8020 C   0  0  0  0  0  0  0  0  0  0  0  0
   18.5850    0.7450  -38.8440 C   0  0  0  0  0  0  0  0  0  0  0  0
   19.6670    0.1640  -39.4320 O   0  0  0  0  0  0  0  0  0  0  0  0
   18.6920    2.0670  -38.2790 C   0  0  0  0  0  0  0  0  0  0  0  0
   17.6310    2.6400  -37.6810 C   0  0  0  0  0  0  0  0  0  0  0  0
   14.9120    0.1260  -38.0030 C   0  0  0  0  0  0  0  0  0  0  0  0
   12.1000   -0.1590  -37.2620 O   0  0  0  0  0  0  0  0  0  0  0  0
   13.1960    0.5910  -35.3100 O   0  0  0  0  0  0  0  0  0  0  0  0
   14.7845    3.0464  -36.3816 H   0  0  0  0  0  0  0  0  0  0  0  0
   10.7568    2.2741  -39.3132 H   0  0  0  0  0  0  0  0  0  0  0  0
   10.3209    4.7699  -38.5469 H   0  0  0  0  0  0  0  0  0  0  0  0
   10.9657    4.8452  -34.2839 H   0  0  0  0  0  0  0  0  0  0  0  0
   12.2181    2.6558  -34.4111 H   0  0  0  0  0  0  0  0  0  0  0  0
   10.9988    1.9820  -36.4226 H   0  0  0  0  0  0  0  0  0  0  0  0
   17.3268   -0.9599  -39.2377 H   0  0  0  0  0  0  0  0  0  0  0  0
   20.4060    0.7596  -39.3913 H   0  0  0  0  0  0  0  0  0  0  0  0
   19.6326    2.6028  -38.3361 H   0  0  0  0  0  0  0  0  0  0  0  0
   17.7042    3.6301  -37.2459 H   0  0  0  0  0  0  0  0  0  0  0  0
   14.5569   -0.8956  -38.1302 H   0  0  0  0  0  0  0  0  0  0  0  0
  1 12  2  0  0  0  0
  1 22  1  0  0  0  0
  2 23  1  0  0  0  0
  3  2  1  0  0  0  0
  3  4  2  0  0  0  0
  4  5  1  0  0  0  0
  4 24  1  0  0  0  0
  5  6  2  0  0  0  0
  7  5  1  0  0  0  0
  7 25  1  0  0  0  0
  8  7  2  0  0  0  0
  8 26  1  0  0  0  0
  9  3  1  0  0  0  0
  9  8  1  0  0  0  0
  9 27  1  1  0  0  0
 10  9  1  0  0  0  0
 10 11  1  0  0  0  0
 10 20  2  0  0  0  0
 10 21  2  0  0  0  0
 11  1  1  0  0  0  0
 11 19  1  0  0  0  0
 12 13  1  0  0  0  0
 12 18  1  0  0  0  0
 13 14  1  0  0  0  0
 13 19  2  0  0  0  0
 14 15  2  0  0  0  0
 14 28  1  0  0  0  0
 15 16  1  0  0  0  0
 15 17  1  0  0  0  0
 16 29  1  0  0  0  0
 17 18  2  0  0  0  0
 17 30  1  0  0  0  0
 18 31  1  0  0  0  0
 19 32  1  0  0  0  0
M  END
