4mq1_ligand
 OpenBabel08222323353D

 60 63  0  0  1  0  0  0  0  0999 V2000
   45.1380   16.3730  -39.7970 N   0  0  0  0  0  0  0  0  0  0  0  0
   45.3290   15.4270  -38.8620 C   0  0  0  0  0  0  0  0  0  0  0  0
   45.9790   13.1490  -38.7200 C   0  0  0  0  0  0  0  0  0  0  0  0
   43.8760   16.5370  -37.3760 C   0  0  0  0  0  0  0  0  0  0  0  0
   42.3820   17.8040  -35.9210 C   0  0  0  0  0  0  0  0  0  0  0  0
   42.8320   18.6340  -38.0760 C   0  0  0  0  0  0  0  0  0  0  0  0
   39.5990   20.9910  -35.5040 C   0  0  0  0  0  0  0  0  0  0  0  0
   37.4000   22.6080  -34.9620 C   0  0  0  0  0  0  0  0  0  0  0  0
   37.7960   21.6740  -34.0420 C   0  0  0  0  0  0  0  0  0  0  0  0
   38.8730   20.8730  -34.3240 C   0  0  0  0  0  0  0  0  0  0  0  0
   37.5810   23.6750  -37.0810 C   0  0  0  0  0  0  0  0  0  0  0  0
   37.2480   23.8670  -40.7620 C   0  0  0  0  0  0  0  0  0  0  0  0
   41.8110   17.8780  -34.8300 O   0  0  0  0  0  0  0  0  0  0  0  0
   43.2300   16.6730  -36.1850 N   0  0  0  0  0  0  0  0  0  0  0  0
   44.7080   15.4950  -37.6420 N   0  0  0  0  0  0  0  0  0  0  0  0
   46.1890   14.4420  -39.2740 O   0  0  0  0  0  0  0  0  0  0  0  0
   44.3150   17.4760  -39.5420 C   0  0  0  0  0  0  0  0  0  0  0  0
   43.6710   17.5500  -38.3080 C   0  0  0  0  0  0  0  0  0  0  0  0
   42.1750   18.7980  -36.8800 C   0  0  0  0  0  0  0  0  0  0  0  0
   41.3240   19.9250  -36.7390 C   0  0  0  0  0  0  0  0  0  0  0  0
   41.2440   20.7330  -37.6520 O   0  0  0  0  0  0  0  0  0  0  0  0
   40.5650   20.0380  -35.6240 N   0  0  0  0  0  0  0  0  0  0  0  0
   39.1740   21.9140  -36.4510 C   0  0  0  0  0  0  0  0  0  0  0  0
   39.3670   19.6800  -33.1760 Cl  0  0  0  0  0  0  0  0  0  0  0  0
   38.0570   22.7150  -36.2030 C   0  0  0  0  0  0  0  0  0  0  0  0
   36.6990   24.4590  -36.6950 O   0  0  0  0  0  0  0  0  0  0  0  0
   37.9580   23.5790  -38.3680 N   0  0  0  0  0  0  0  0  0  0  0  0
   37.5130   24.5490  -39.4120 C   0  0  1  0  0  0  0  0  0  0  0  0
   36.1480   24.7710  -41.3170 C   0  0  0  0  0  0  0  0  0  0  0  0
   36.1370   24.5000  -42.7200 N   0  3  0  0  0  0  0  0  0  0  0  0
   38.5330   25.5050  -39.5960 C   0  0  0  0  0  0  0  0  0  0  0  0
   38.3290   26.8030  -39.2170 C   0  0  0  0  0  0  0  0  0  0  0  0
   39.3670   27.7330  -39.3620 C   0  0  0  0  0  0  0  0  0  0  0  0
   39.0900   29.3230  -38.8740 Cl  0  0  0  0  0  0  0  0  0  0  0  0
   40.5890   27.3900  -39.9180 C   0  0  0  0  0  0  0  0  0  0  0  0
   40.7980   26.0810  -40.3180 C   0  0  0  0  0  0  0  0  0  0  0  0
   39.7700   25.1510  -40.1360 C   0  0  0  0  0  0  0  0  0  0  0  0
   46.7265   12.4509  -39.1248 H   0  0  0  0  0  0  0  0  0  0  0  0
   44.9699   12.7976  -38.9812 H   0  0  0  0  0  0  0  0  0  0  0  0
   46.0783   13.1984  -37.6256 H   0  0  0  0  0  0  0  0  0  0  0  0
   42.6916   19.3732  -38.8633 H   0  0  0  0  0  0  0  0  0  0  0  0
   36.5734   23.2708  -34.7329 H   0  0  0  0  0  0  0  0  0  0  0  0
   37.2649   21.5691  -33.1028 H   0  0  0  0  0  0  0  0  0  0  0  0
   36.8972   22.8325  -40.6329 H   0  0  0  0  0  0  0  0  0  0  0  0
   38.1417   23.8738  -41.4032 H   0  0  0  0  0  0  0  0  0  0  0  0
   43.3475   15.9731  -35.4805 H   0  0  0  0  0  0  0  0  0  0  0  0
   44.1817   18.2534  -40.2856 H   0  0  0  0  0  0  0  0  0  0  0  0
   40.7178   19.4035  -34.8663 H   0  0  0  0  0  0  0  0  0  0  0  0
   39.7118   22.0131  -37.3870 H   0  0  0  0  0  0  0  0  0  0  0  0
   38.5607   22.8277  -38.6367 H   0  0  0  0  0  0  0  0  0  0  0  0
   36.5921   25.0453  -39.0721 H   0  0  0  0  0  0  0  0  0  0  0  0
   36.3814   25.8290  -41.1271 H   0  0  0  0  0  0  0  0  0  0  0  0
   35.1761   24.5231  -40.8654 H   0  0  0  0  0  0  0  0  0  0  0  0
   35.4298   25.0634  -43.1655 H   0  0  0  0  0  0  0  0  0  0  0  0
   35.9344   23.5244  -42.8722 H   0  0  0  0  0  0  0  0  0  0  0  0
   37.0389   24.7211  -43.1120 H   0  0  0  0  0  0  0  0  0  0  0  0
   37.3730   27.1096  -38.8081 H   0  0  0  0  0  0  0  0  0  0  0  0
   41.3682   28.1340  -40.0378 H   0  0  0  0  0  0  0  0  0  0  0  0
   41.7402   25.7831  -40.7636 H   0  0  0  0  0  0  0  0  0  0  0  0
   39.9397   24.1199  -40.4242 H   0  0  0  0  0  0  0  0  0  0  0  0
  1  2  2  0  0  0  0
  2 16  1  0  0  0  0
  3 38  1  0  0  0  0
  3 39  1  0  0  0  0
  3 40  1  0  0  0  0
  4 15  2  0  0  0  0
  5 13  2  0  0  0  0
  5 14  1  0  0  0  0
  6 18  1  0  0  0  0
  6 41  1  0  0  0  0
  7 10  2  0  0  0  0
  7 22  1  0  0  0  0
  8  9  2  0  0  0  0
  8 42  1  0  0  0  0
  9 10  1  0  0  0  0
  9 43  1  0  0  0  0
 10 24  1  0  0  0  0
 11 25  1  0  0  0  0
 11 26  2  0  0  0  0
 12 29  1  0  0  0  0
 12 44  1  0  0  0  0
 12 45  1  0  0  0  0
 14  4  1  0  0  0  0
 14 46  1  0  0  0  0
 15  2  1  0  0  0  0
 16  3  1  0  0  0  0
 17  1  1  0  0  0  0
 17 47  1  0  0  0  0
 18  4  1  0  0  0  0
 18 17  2  0  0  0  0
 19  5  1  0  0  0  0
 19  6  2  0  0  0  0
 20 19  1  0  0  0  0
 20 21  2  0  0  0  0
 22 20  1  0  0  0  0
 22 48  1  0  0  0  0
 23  7  1  0  0  0  0
 23 49  1  0  0  0  0
 25  8  1  0  0  0  0
 25 23  2  0  0  0  0
 27 11  1  0  0  0  0
 27 28  1  0  0  0  0
 27 50  1  0  0  0  0
 28 12  1  0  0  0  0
 28 31  1  0  0  0  0
 28 51  1  1  0  0  0
 29 30  1  0  0  0  0
 29 52  1  0  0  0  0
 29 53  1  0  0  0  0
 30 54  1  0  0  0  0
 30 55  1  0  0  0  0
 30 56  1  0  0  0  0
 31 32  2  0  0  0  0
 31 37  1  0  0  0  0
 32 33  1  0  0  0  0
 32 57  1  0  0  0  0
 33 34  1  0  0  0  0
 33 35  2  0  0  0  0
 35 36  1  0  0  0  0
 35 58  1  0  0  0  0
 36 37  2  0  0  0  0
 36 59  1  0  0  0  0
 37 60  1  0  0  0  0
M  CHG  1  30   1
M  END
