4mra_ligand
 OpenBabel08222323353D

 32 34  0  0  0  0  0  0  0  0999 V2000
    8.2080   23.7750   29.5360 C   0  0  0  0  0  0  0  0  0  0  0  0
    7.6880   25.0600   29.6380 C   0  0  0  0  0  0  0  0  0  0  0  0
    7.0900   25.4800   30.9310 C   0  0  0  0  0  0  0  0  0  0  0  0
    7.0720   24.5580   32.0960 C   0  0  0  0  0  0  0  0  0  0  0  0
    7.6340   23.2910   31.8990 C   0  0  0  0  0  0  0  0  0  0  0  0
    8.1830   22.9150   30.6560 C   0  0  0  0  0  0  0  0  0  0  0  0
    6.5140   26.8220   31.0970 C   0  0  0  0  0  0  0  0  0  0  0  0
    5.9370   27.1990   32.4220 C   0  0  0  0  0  0  0  0  0  0  0  0
    5.9770   26.2150   33.5280 C   0  0  0  0  0  0  0  0  0  0  0  0
    5.3890   26.6070   34.8410 C   0  0  0  0  0  0  0  0  0  0  0  0
    6.0050   27.6070   35.6280 C   0  0  0  0  0  0  0  0  0  0  0  0
    5.4480   27.9890   36.8640 C   0  0  0  0  0  0  0  0  0  0  0  0
    4.2680   27.3690   37.3240 C   0  0  0  0  0  0  0  0  0  0  0  0
    3.6210   26.3240   36.4900 C   0  0  0  0  0  0  0  0  0  0  0  0
    4.2040   25.9720   35.2630 C   0  0  0  0  0  0  0  0  0  0  0  0
    6.5350   24.9630   33.3200 O   0  0  0  0  0  0  0  0  0  0  0  0
    6.5350   27.5860   30.1060 O   0  0  0  0  0  0  0  0  0  0  0  0
    2.4780   25.7360   36.9340 O   0  0  0  0  0  0  0  0  0  0  0  0
    3.6960   27.6730   38.5180 O   0  0  0  0  0  0  0  0  0  0  0  0
    5.3710   28.4160   32.6410 O   0  0  0  0  0  0  0  0  0  0  0  0
    8.7220   21.6550   30.5680 O   0  0  0  0  0  0  0  0  0  0  0  0
    7.6850   25.9150   28.5810 O   0  0  0  0  0  0  0  0  0  0  0  0
    8.6319   23.4336   28.5986 H   0  0  0  0  0  0  0  0  0  0  0  0
    7.6474   22.5835   32.7202 H   0  0  0  0  0  0  0  0  0  0  0  0
    6.9133   28.0836   35.2774 H   0  0  0  0  0  0  0  0  0  0  0  0
    5.9255   28.7580   37.4604 H   0  0  0  0  0  0  0  0  0  0  0  0
    3.7436   25.2130   34.6410 H   0  0  0  0  0  0  0  0  0  0  0  0
    2.2410   26.1036   37.7774 H   0  0  0  0  0  0  0  0  0  0  0  0
    4.2042   28.3507   38.9479 H   0  0  0  0  0  0  0  0  0  0  0  0
    5.4191   28.9340   31.8462 H   0  0  0  0  0  0  0  0  0  0  0  0
    9.0582   21.5162   29.6904 H   0  0  0  0  0  0  0  0  0  0  0  0
    8.1015   25.4975   27.8362 H   0  0  0  0  0  0  0  0  0  0  0  0
  1  2  2  0  0  0  0
  1  6  1  0  0  0  0
  1 23  1  0  0  0  0
  2  3  1  0  0  0  0
  2 22  1  0  0  0  0
  3  4  2  0  0  0  0
  3  7  1  0  0  0  0
  4  5  1  0  0  0  0
  4 16  1  0  0  0  0
  5  6  2  0  0  0  0
  5 24  1  0  0  0  0
  6 21  1  0  0  0  0
  7  8  1  0  0  0  0
  7 17  2  0  0  0  0
  8  9  2  0  0  0  0
  8 20  1  0  0  0  0
  9 10  1  0  0  0  0
  9 16  1  0  0  0  0
 10 11  2  0  0  0  0
 10 15  1  0  0  0  0
 11 12  1  0  0  0  0
 11 25  1  0  0  0  0
 12 13  2  0  0  0  0
 12 26  1  0  0  0  0
 13 14  1  0  0  0  0
 13 19  1  0  0  0  0
 14 15  2  0  0  0  0
 14 18  1  0  0  0  0
 15 27  1  0  0  0  0
 18 28  1  0  0  0  0
 19 29  1  0  0  0  0
 20 30  1  0  0  0  0
 21 31  1  0  0  0  0
 22 32  1  0  0  0  0
M  END
