4mrh_ligand
 OpenBabel08222323353D

 19 19  0  0  0  0  0  0  0  0999 V2000
    2.5940    4.5330  -11.1050 N   0  0  0  0  0  0  0  0  0  0  0  0
    1.8070    4.1300  -10.1030 C   0  0  0  0  0  0  0  0  0  0  0  0
    1.3590    4.9950   -9.0800 C   0  0  0  0  0  0  0  0  0  0  0  0
    0.5530    4.5210   -8.0170 C   0  0  0  0  0  0  0  0  0  0  0  0
    0.0670    5.3960   -6.9750 C   0  0  0  0  0  0  0  0  0  0  0  0
    0.2380    3.1510   -8.0030 C   0  0  0  0  0  0  0  0  0  0  0  0
   -0.7030    2.4790   -6.7070 Cl  0  0  0  0  0  0  0  0  0  0  0  0
    0.6950    2.2840   -9.0050 C   0  0  0  0  0  0  0  0  0  0  0  0
    1.4800    2.7590  -10.0570 C   0  0  0  0  0  0  0  0  0  0  0  0
    1.9260    1.9390  -11.0410 N   0  0  0  0  0  0  0  0  0  0  0  0
    2.8616    5.5246  -11.1828 H   0  0  0  0  0  0  0  0  0  0  0  0
    2.9330    3.8520  -11.7995 H   0  0  0  0  0  0  0  0  0  0  0  0
    1.6378    6.0421   -9.1095 H   0  0  0  0  0  0  0  0  0  0  0  0
    0.4189    6.4210   -7.1632 H   0  0  0  0  0  0  0  0  0  0  0  0
    0.4450    5.0517   -6.0011 H   0  0  0  0  0  0  0  0  0  0  0  0
   -1.0329    5.3816   -6.9674 H   0  0  0  0  0  0  0  0  0  0  0  0
    0.4358    1.2323   -8.9625 H   0  0  0  0  0  0  0  0  0  0  0  0
    2.5038    2.3180  -11.8048 H   0  0  0  0  0  0  0  0  0  0  0  0
    1.6869    0.9373  -11.0244 H   0  0  0  0  0  0  0  0  0  0  0  0
  1  2  1  0  0  0  0
  1 11  1  0  0  0  0
  1 12  1  0  0  0  0
  2  3  2  0  0  0  0
  2  9  1  0  0  0  0
  3  4  1  0  0  0  0
  3 13  1  0  0  0  0
  4  5  1  0  0  0  0
  4  6  2  0  0  0  0
  5 14  1  0  0  0  0
  5 15  1  0  0  0  0
  5 16  1  0  0  0  0
  6  7  1  0  0  0  0
  6  8  1  0  0  0  0
  8  9  2  0  0  0  0
  8 17  1  0  0  0  0
  9 10  1  0  0  0  0
 10 18  1  0  0  0  0
 10 19  1  0  0  0  0
M  END
