4mt9_ligand
 OpenBabel08222323353D

 56 59  0  0  1  0  0  0  0  0999 V2000
   -5.9950   42.9850   26.9670 N   0  0  0  0  0  0  0  0  0  0  0  0
   -4.6320   43.0540   26.7700 C   0  0  0  0  0  0  0  0  0  0  0  0
   -3.9340   42.0640   26.5000 O   0  0  0  0  0  0  0  0  0  0  0  0
   -3.9740   44.4450   26.8100 C   0  0  0  0  0  0  0  0  0  0  0  0
   -3.9340   45.1290   28.1240 C   0  0  0  0  0  0  0  0  0  0  0  0
   -3.5250   44.0140   29.6050 S   0  0  0  0  0  0  0  0  0  0  0  0
   -1.7980   43.7370   29.4390 C   0  0  0  0  0  0  0  0  0  0  0  0
   -1.2540   42.6780   30.1310 N   0  0  0  0  0  0  0  0  0  0  0  0
    0.0650   42.2940   30.0490 C   0  0  0  0  0  0  0  0  0  0  0  0
    0.5240   41.3490   30.6960 O   0  0  0  0  0  0  0  0  0  0  0  0
   -1.0340   44.4970   28.6340 N   0  0  0  0  0  0  0  0  0  0  0  0
    0.2940   44.2250   28.4670 C   0  0  0  0  0  0  0  0  0  0  0  0
    0.9540   43.0600   29.1870 C   0  0  0  0  0  0  0  0  0  0  0  0
    2.3660   42.7820   28.9940 C   0  0  0  0  0  0  0  0  0  0  0  0
    3.1600   43.6510   28.1100 C   0  0  0  0  0  0  0  0  0  0  0  0
    2.5320   44.7920   27.4200 C   0  0  0  0  0  0  0  0  0  0  0  0
    1.1020   45.0760   27.6050 C   0  0  0  0  0  0  0  0  0  0  0  0
   -8.4820   40.1880   26.0880 C   0  0  0  0  0  0  0  0  0  0  0  0
   -7.5190   41.3310   25.8930 C   0  0  0  0  0  0  0  0  0  0  0  0
   -6.5700   41.6220   27.1060 C   0  0  2  0  0  0  0  0  0  0  0  0
   -7.2740   41.4650   28.4860 C   0  0  0  0  0  0  0  0  0  0  0  0
   -8.2140   40.2930   28.5830 C   0  0  0  0  0  0  0  0  0  0  0  0
   -9.2430   40.2080   27.4390 C   0  0  2  0  0  0  0  0  0  0  0  0
  -10.0800   38.9950   27.6030 O   0  0  0  0  0  0  0  0  0  0  0  0
  -11.3760   39.2000   28.2570 C   0  0  0  0  0  0  0  0  0  0  0  0
  -11.7510   40.5450   28.6880 C   0  0  0  0  0  0  0  0  0  0  0  0
  -13.0150   40.7570   29.3120 C   0  0  0  0  0  0  0  0  0  0  0  0
  -13.8510   39.6470   29.4940 C   0  0  0  0  0  0  0  0  0  0  0  0
  -13.5040   38.2700   29.0820 C   0  0  0  0  0  0  0  0  0  0  0  0
  -12.2470   38.0460   28.4510 C   0  0  0  0  0  0  0  0  0  0  0  0
  -15.0750   40.1440   30.1170 C   0  0  0  0  0  0  0  0  0  0  0  0
  -16.0060   40.6200   30.6070 N   0  0  0  0  0  0  0  0  0  0  0  0
   -6.5643   43.8058   27.0137 H   0  0  0  0  0  0  0  0  0  0  0  0
   -4.5257   45.0940   26.1140 H   0  0  0  0  0  0  0  0  0  0  0  0
   -2.9366   44.3323   26.4621 H   0  0  0  0  0  0  0  0  0  0  0  0
   -4.9204   45.5822   28.3017 H   0  0  0  0  0  0  0  0  0  0  0  0
   -3.1710   45.9197   28.0727 H   0  0  0  0  0  0  0  0  0  0  0  0
   -1.8568   42.1537   30.7324 H   0  0  0  0  0  0  0  0  0  0  0  0
    2.8314   41.9418   29.4965 H   0  0  0  0  0  0  0  0  0  0  0  0
    4.2153   43.4501   27.9653 H   0  0  0  0  0  0  0  0  0  0  0  0
    3.1281   45.4250   26.7727 H   0  0  0  0  0  0  0  0  0  0  0  0
    0.6481   45.9203   27.0989 H   0  0  0  0  0  0  0  0  0  0  0  0
   -7.9148   39.2474   26.0277 H   0  0  0  0  0  0  0  0  0  0  0  0
   -9.2234   40.2218   25.2762 H   0  0  0  0  0  0  0  0  0  0  0  0
   -8.1061   42.2400   25.6952 H   0  0  0  0  0  0  0  0  0  0  0  0
   -6.8922   41.1018   25.0186 H   0  0  0  0  0  0  0  0  0  0  0  0
   -5.7460   40.8943   27.0695 H   0  0  0  0  0  0  0  0  0  0  0  0
   -7.8483   42.3820   28.6840 H   0  0  0  0  0  0  0  0  0  0  0  0
   -6.4970   41.3456   29.2554 H   0  0  0  0  0  0  0  0  0  0  0  0
   -8.7618   40.3687   29.5339 H   0  0  0  0  0  0  0  0  0  0  0  0
   -7.6155   39.3701   28.5770 H   0  0  0  0  0  0  0  0  0  0  0  0
   -9.8944   41.0939   27.4699 H   0  0  0  0  0  0  0  0  0  0  0  0
  -11.0723   41.3762   28.5342 H   0  0  0  0  0  0  0  0  0  0  0  0
  -13.3200   41.7456   29.6356 H   0  0  0  0  0  0  0  0  0  0  0  0
  -14.1908   37.4496   29.2563 H   0  0  0  0  0  0  0  0  0  0  0  0
  -11.9488   37.0554   28.1271 H   0  0  0  0  0  0  0  0  0  0  0  0
  1  2  1  0  0  0  0
  1 33  1  0  0  0  0
  2  3  2  0  0  0  0
  2  4  1  0  0  0  0
  4  5  1  0  0  0  0
  4 34  1  0  0  0  0
  4 35  1  0  0  0  0
  5  6  1  0  0  0  0
  5 36  1  0  0  0  0
  5 37  1  0  0  0  0
  6  7  1  0  0  0  0
  7  8  1  0  0  0  0
  7 11  2  0  0  0  0
  8  9  1  0  0  0  0
  8 38  1  0  0  0  0
  9 10  2  0  0  0  0
  9 13  1  0  0  0  0
 11 12  1  0  0  0  0
 12 13  2  0  0  0  0
 12 17  1  0  0  0  0
 13 14  1  0  0  0  0
 14 15  2  0  0  0  0
 14 39  1  0  0  0  0
 15 40  1  0  0  0  0
 16 15  1  0  0  0  0
 16 41  1  0  0  0  0
 17 16  2  0  0  0  0
 17 42  1  0  0  0  0
 18 23  1  0  0  0  0
 18 43  1  0  0  0  0
 18 44  1  0  0  0  0
 19 18  1  0  0  0  0
 19 20  1  0  0  0  0
 19 45  1  0  0  0  0
 19 46  1  0  0  0  0
 20  1  1  0  0  0  0
 20 21  1  0  0  0  0
 20 47  1  6  0  0  0
 21 22  1  0  0  0  0
 21 48  1  0  0  0  0
 21 49  1  0  0  0  0
 22 23  1  0  0  0  0
 22 50  1  0  0  0  0
 22 51  1  0  0  0  0
 23 24  1  0  0  0  0
 23 52  1  1  0  0  0
 24 25  1  0  0  0  0
 25 26  2  0  0  0  0
 25 30  1  0  0  0  0
 26 27  1  0  0  0  0
 26 53  1  0  0  0  0
 27 28  2  0  0  0  0
 27 54  1  0  0  0  0
 28 29  1  0  0  0  0
 28 31  1  0  0  0  0
 29 30  2  0  0  0  0
 29 55  1  0  0  0  0
 30 56  1  0  0  0  0
 31 32  3  0  0  0  0
M  END
