4mvn_ligand
 OpenBabel08222323353D

 39 40  0  0  1  0  0  0  0  0999 V2000
  -26.3130    6.7060  -13.9840 C   0  0  0  0  0  0  0  0  0  0  0  0
  -26.6380    5.5660  -14.6780 C   0  0  0  0  0  0  0  0  0  0  0  0
  -24.9900    7.1060  -13.7560 C   0  0  0  0  0  0  0  0  0  0  0  0
  -23.9540    6.2980  -14.2110 C   0  0  0  0  0  0  0  0  0  0  0  0
  -22.3020    2.4670  -12.1260 O   0  0  0  0  0  0  0  0  0  0  0  0
  -22.4300    3.8970  -12.0080 C   0  0  0  0  0  0  0  0  0  0  0  0
  -21.7180    4.6740  -12.8220 N   0  0  0  0  0  0  0  0  0  0  0  0
  -21.9250    6.1270  -12.6680 C   0  0  1  0  0  0  0  0  0  0  0  0
  -23.2220    4.2760  -11.1310 O   0  0  0  0  0  0  0  0  0  0  0  0
  -20.2760    6.8350  -12.4320 P   0  0  2  0  0  0  0  0  0  0  0  0
  -23.1610    1.6430  -11.2960 C   0  0  0  0  0  0  0  0  0  0  0  0
  -24.5500    1.3660  -11.8790 C   0  0  0  0  0  0  0  0  0  0  0  0
  -25.3540    0.3820  -11.2920 C   0  0  0  0  0  0  0  0  0  0  0  0
  -26.6170    0.1170  -11.8130 C   0  0  0  0  0  0  0  0  0  0  0  0
  -27.1080    0.8270  -12.9210 C   0  0  0  0  0  0  0  0  0  0  0  0
  -25.6060    4.7420  -15.1450 C   0  0  0  0  0  0  0  0  0  0  0  0
  -24.2870    5.1680  -14.9140 C   0  0  0  0  0  0  0  0  0  0  0  0
  -22.4520    6.6000  -13.9980 C   0  0  0  0  0  0  0  0  0  0  0  0
  -19.4660    6.8650  -13.7010 O   0  0  0  0  0  1  0  0  0  0  0  0
  -26.3200    1.8050  -13.5090 C   0  0  0  0  0  0  0  0  0  0  0  0
  -25.0460    2.0480  -12.9760 C   0  0  0  0  0  0  0  0  0  0  0  0
  -19.6910    6.3510  -11.0590 O   0  0  0  0  0  0  0  0  0  0  0  0
  -27.1153    7.3230  -13.5958 H   0  0  0  0  0  0  0  0  0  0  0  0
  -27.6750    5.3085  -14.8611 H   0  0  0  0  0  0  0  0  0  0  0  0
  -24.7772    8.0313  -13.2329 H   0  0  0  0  0  0  0  0  0  0  0  0
  -21.0827    4.2964  -13.4956 H   0  0  0  0  0  0  0  0  0  0  0  0
  -22.6051    6.3738  -11.8394 H   0  0  0  0  0  0  0  0  0  0  0  0
  -20.4418    7.8154  -12.2667 H   0  0  0  0  0  0  0  0  0  0  0  0
  -23.2916    2.1515  -10.3294 H   0  0  0  0  0  0  0  0  0  0  0  0
  -22.6585    0.6774  -11.1375 H   0  0  0  0  0  0  0  0  0  0  0  0
  -24.9936   -0.1726  -10.4332 H   0  0  0  0  0  0  0  0  0  0  0  0
  -27.2319   -0.6500  -11.3562 H   0  0  0  0  0  0  0  0  0  0  0  0
  -28.0953    0.6121  -13.3135 H   0  0  0  0  0  0  0  0  0  0  0  0
  -25.8163    3.8135  -15.6635 H   0  0  0  0  0  0  0  0  0  0  0  0
  -23.4812    4.5653  -15.3170 H   0  0  0  0  0  0  0  0  0  0  0  0
  -22.3031    7.6878  -14.0642 H   0  0  0  0  0  0  0  0  0  0  0  0
  -21.8806    6.1024  -14.7954 H   0  0  0  0  0  0  0  0  0  0  0  0
  -26.6808    2.3690  -14.3615 H   0  0  0  0  0  0  0  0  0  0  0  0
  -24.4232    2.8022  -13.4432 H   0  0  0  0  0  0  0  0  0  0  0  0
  1  2  2  0  0  0  0
  1 23  1  0  0  0  0
  2 16  1  0  0  0  0
  2 24  1  0  0  0  0
  3  1  1  0  0  0  0
  3 25  1  0  0  0  0
  4  3  2  0  0  0  0
  4 17  1  0  0  0  0
  5 11  1  0  0  0  0
  6  5  1  0  0  0  0
  6  9  2  0  0  0  0
  7  6  1  0  0  0  0
  7 26  1  0  0  0  0
  8  7  1  0  0  0  0
  8 10  1  0  0  0  0
  8 18  1  0  0  0  0
  8 27  1  1  0  0  0
 10 19  1  0  0  0  0
 10 22  2  0  0  0  0
 10 28  1  1  0  0  0
 11 12  1  0  0  0  0
 11 29  1  0  0  0  0
 11 30  1  0  0  0  0
 12 13  2  0  0  0  0
 12 21  1  0  0  0  0
 13 14  1  0  0  0  0
 13 31  1  0  0  0  0
 14 15  2  0  0  0  0
 14 32  1  0  0  0  0
 15 20  1  0  0  0  0
 15 33  1  0  0  0  0
 16 17  2  0  0  0  0
 16 34  1  0  0  0  0
 17 35  1  0  0  0  0
 18  4  1  0  0  0  0
 18 36  1  0  0  0  0
 18 37  1  0  0  0  0
 20 21  2  0  0  0  0
 20 38  1  0  0  0  0
 21 39  1  0  0  0  0
M  END
