4mw1_ligand
 OpenBabel08222323353D

 44 45  0  0  0  0  0  0  0  0999 V2000
  -41.6950  -17.7880   -7.0710 C   0  0  0  0  0  0  0  0  0  0  0  0
  -42.1660  -16.4520   -6.9750 O   0  0  0  0  0  0  0  0  0  0  0  0
  -41.2520  -15.4400   -6.9860 C   0  0  0  0  0  0  0  0  0  0  0  0
  -41.8120  -14.1790   -7.0030 C   0  0  0  0  0  0  0  0  0  0  0  0
  -39.8860  -15.6230   -7.0390 C   0  0  0  0  0  0  0  0  0  0  0  0
  -39.0890  -14.5080   -7.1210 C   0  0  0  0  0  0  0  0  0  0  0  0
  -37.3700  -14.7200   -7.1630 Cl  0  0  0  0  0  0  0  0  0  0  0  0
  -39.6160  -13.2330   -7.1570 C   0  0  0  0  0  0  0  0  0  0  0  0
  -40.9980  -13.0600   -7.0970 C   0  0  0  0  0  0  0  0  0  0  0  0
  -41.6290  -11.6890   -7.1120 C   0  0  0  0  0  0  0  0  0  0  0  0
  -42.0230  -11.2070   -8.4400 N   0  3  0  0  0  0  0  0  0  0  0  0
  -43.0800  -12.0040   -9.0660 C   0  0  0  0  0  0  0  0  0  0  0  0
  -43.6410  -11.3270  -10.2990 C   0  0  0  0  0  0  0  0  0  0  0  0
  -44.5670  -12.1890  -11.1360 C   0  0  0  0  0  0  0  0  0  0  0  0
  -43.8450  -13.0040  -12.1020 N   0  0  0  0  0  0  0  0  0  0  0  0
  -44.4720  -13.8500  -12.9380 C   0  0  0  0  0  0  0  0  0  0  0  0
  -45.6830  -13.8260  -13.1170 O   0  0  0  0  0  0  0  0  0  0  0  0
  -43.6590  -14.7360  -13.6330 N   0  0  0  0  0  0  0  0  0  0  0  0
  -44.1160  -15.7380  -14.5220 C   0  0  0  0  0  0  0  0  0  0  0  0
  -43.1640  -16.6190  -15.1180 C   0  0  0  0  0  0  0  0  0  0  0  0
  -43.7330  -17.5560  -15.9090 C   0  0  0  0  0  0  0  0  0  0  0  0
  -45.4230  -17.4070  -15.9460 S   0  0  0  0  0  0  0  0  0  0  0  0
  -45.4000  -16.0630  -14.9080 C   0  0  0  0  0  0  0  0  0  0  0  0
  -42.5494  -18.4805   -7.0484 H   0  0  0  0  0  0  0  0  0  0  0  0
  -41.0264  -18.0028   -6.2243 H   0  0  0  0  0  0  0  0  0  0  0  0
  -41.1444  -17.9158   -8.0146 H   0  0  0  0  0  0  0  0  0  0  0  0
  -42.8881  -14.0630   -6.9429 H   0  0  0  0  0  0  0  0  0  0  0  0
  -39.4546  -16.6172   -7.0166 H   0  0  0  0  0  0  0  0  0  0  0  0
  -38.9605  -12.3729   -7.2313 H   0  0  0  0  0  0  0  0  0  0  0  0
  -40.9064  -10.9752   -6.6896 H   0  0  0  0  0  0  0  0  0  0  0  0
  -42.5278  -11.7191   -6.4786 H   0  0  0  0  0  0  0  0  0  0  0  0
  -41.2126  -11.2267   -9.0391 H   0  0  0  0  0  0  0  0  0  0  0  0
  -42.3511  -10.2582   -8.3497 H   0  0  0  0  0  0  0  0  0  0  0  0
  -43.8929  -12.1504   -8.3395 H   0  0  0  0  0  0  0  0  0  0  0  0
  -42.6654  -12.9813   -9.3542 H   0  0  0  0  0  0  0  0  0  0  0  0
  -42.7969  -11.0174  -10.9327 H   0  0  0  0  0  0  0  0  0  0  0  0
  -44.2018  -10.4379   -9.9752 H   0  0  0  0  0  0  0  0  0  0  0  0
  -45.2651  -11.5342  -11.6781 H   0  0  0  0  0  0  0  0  0  0  0  0
  -45.1326  -12.8534  -10.4661 H   0  0  0  0  0  0  0  0  0  0  0  0
  -42.8485  -12.9322  -12.1454 H   0  0  0  0  0  0  0  0  0  0  0  0
  -42.6716  -14.6599  -13.4942 H   0  0  0  0  0  0  0  0  0  0  0  0
  -42.0903  -16.5440  -14.9526 H   0  0  0  0  0  0  0  0  0  0  0  0
  -43.1747  -18.3143  -16.4560 H   0  0  0  0  0  0  0  0  0  0  0  0
  -46.2898  -15.5238  -14.5865 H   0  0  0  0  0  0  0  0  0  0  0  0
  1  2  1  0  0  0  0
  1 24  1  0  0  0  0
  1 25  1  0  0  0  0
  1 26  1  0  0  0  0
  2  3  1  0  0  0  0
  3  4  2  0  0  0  0
  3  5  1  0  0  0  0
  4  9  1  0  0  0  0
  4 27  1  0  0  0  0
  5  6  2  0  0  0  0
  5 28  1  0  0  0  0
  6  7  1  0  0  0  0
  6  8  1  0  0  0  0
  8  9  2  0  0  0  0
  8 29  1  0  0  0  0
  9 10  1  0  0  0  0
 10 11  1  0  0  0  0
 10 30  1  0  0  0  0
 10 31  1  0  0  0  0
 11 12  1  0  0  0  0
 11 32  1  0  0  0  0
 11 33  1  0  0  0  0
 12 13  1  0  0  0  0
 12 34  1  0  0  0  0
 12 35  1  0  0  0  0
 13 14  1  0  0  0  0
 13 36  1  0  0  0  0
 13 37  1  0  0  0  0
 14 15  1  0  0  0  0
 14 38  1  0  0  0  0
 14 39  1  0  0  0  0
 15 16  1  0  0  0  0
 15 40  1  0  0  0  0
 16 17  2  0  0  0  0
 16 18  1  0  0  0  0
 18 19  1  0  0  0  0
 18 41  1  0  0  0  0
 19 20  1  0  0  0  0
 19 23  2  0  0  0  0
 20 21  2  0  0  0  0
 20 42  1  0  0  0  0
 21 22  1  0  0  0  0
 21 43  1  0  0  0  0
 22 23  1  0  0  0  0
 23 44  1  0  0  0  0
M  CHG  1  11   1
M  END
