4mw9_ligand
 OpenBabel08222323353D

 42 43  0  0  0  0  0  0  0  0999 V2000
  -45.3800   13.9750   13.1040 O   0  0  0  0  0  0  0  0  0  0  0  0
  -44.1630   13.9170   13.0020 C   0  0  0  0  0  0  0  0  0  0  0  0
  -43.3540   14.7610   13.7210 N   0  0  0  0  0  0  0  0  0  0  0  0
  -43.8040   15.7980   14.5730 C   0  0  0  0  0  0  0  0  0  0  0  0
  -42.8410   16.7390   15.0590 C   0  0  0  0  0  0  0  0  0  0  0  0
  -43.3660   17.6940   15.8370 C   0  0  0  0  0  0  0  0  0  0  0  0
  -45.0500   17.4810   15.9920 S   0  0  0  0  0  0  0  0  0  0  0  0
  -45.0650   16.0920   15.0170 C   0  0  0  0  0  0  0  0  0  0  0  0
  -43.5480   13.0270   12.2060 N   0  0  0  0  0  0  0  0  0  0  0  0
  -44.3060   12.0910   11.3850 C   0  0  0  0  0  0  0  0  0  0  0  0
  -43.4350   11.3260   10.4220 C   0  0  0  0  0  0  0  0  0  0  0  0
  -43.2280   12.0310    9.1090 C   0  0  0  0  0  0  0  0  0  0  0  0
  -41.9850   11.6250    8.4540 N   0  3  0  0  0  0  0  0  0  0  0  0
  -41.8230   12.1170    7.0810 C   0  0  0  0  0  0  0  0  0  0  0  0
  -41.1980   13.4840    7.1140 C   0  0  0  0  0  0  0  0  0  0  0  0
  -39.8360   13.6380    7.1660 C   0  0  0  0  0  0  0  0  0  0  0  0
  -39.3100   14.9200    7.1850 C   0  0  0  0  0  0  0  0  0  0  0  0
  -37.9380   15.0910    7.2130 C   0  0  0  0  0  0  0  0  0  0  0  0
  -36.8030   15.2700    7.2420 C   0  0  0  0  0  0  0  0  0  0  0  0
  -40.1210   16.0390    7.1640 C   0  0  0  0  0  0  0  0  0  0  0  0
  -41.4790   15.8700    7.1110 C   0  0  0  0  0  0  0  0  0  0  0  0
  -42.0240   14.5880    7.0840 C   0  0  0  0  0  0  0  0  0  0  0  0
  -42.3659   14.6329   13.6360 H   0  0  0  0  0  0  0  0  0  0  0  0
  -41.7804   16.6834   14.8184 H   0  0  0  0  0  0  0  0  0  0  0  0
  -42.7964   18.4952   16.3055 H   0  0  0  0  0  0  0  0  0  0  0  0
  -45.9561   15.5136   14.7773 H   0  0  0  0  0  0  0  0  0  0  0  0
  -42.5487   13.0060   12.1759 H   0  0  0  0  0  0  0  0  0  0  0  0
  -45.0560   12.6542   10.8102 H   0  0  0  0  0  0  0  0  0  0  0  0
  -44.8138   11.3737   12.0465 H   0  0  0  0  0  0  0  0  0  0  0  0
  -43.9071   10.3525   10.2236 H   0  0  0  0  0  0  0  0  0  0  0  0
  -42.4526   11.1684   10.8910 H   0  0  0  0  0  0  0  0  0  0  0  0
  -43.1949   13.1154    9.2905 H   0  0  0  0  0  0  0  0  0  0  0  0
  -44.0720   11.7961    8.4438 H   0  0  0  0  0  0  0  0  0  0  0  0
  -41.9572   10.6177    8.4313 H   0  0  0  0  0  0  0  0  0  0  0  0
  -41.2138   11.9702    9.0037 H   0  0  0  0  0  0  0  0  0  0  0  0
  -42.8070   12.1745    6.5927 H   0  0  0  0  0  0  0  0  0  0  0  0
  -41.1740   11.4297    6.5185 H   0  0  0  0  0  0  0  0  0  0  0  0
  -39.1832   12.7730    7.1918 H   0  0  0  0  0  0  0  0  0  0  0  0
  -35.7602   15.4345    7.2686 H   0  0  0  0  0  0  0  0  0  0  0  0
  -39.6896   17.0332    7.1890 H   0  0  0  0  0  0  0  0  0  0  0  0
  -42.1313   16.7355    7.0900 H   0  0  0  0  0  0  0  0  0  0  0  0
  -43.0993   14.4581    7.0393 H   0  0  0  0  0  0  0  0  0  0  0  0
  1  2  2  0  0  0  0
  2  3  1  0  0  0  0
  2  9  1  0  0  0  0
  3  4  1  0  0  0  0
  3 23  1  0  0  0  0
  4  5  1  0  0  0  0
  4  8  2  0  0  0  0
  5  6  2  0  0  0  0
  5 24  1  0  0  0  0
  6  7  1  0  0  0  0
  6 25  1  0  0  0  0
  7  8  1  0  0  0  0
  8 26  1  0  0  0  0
  9 10  1  0  0  0  0
  9 27  1  0  0  0  0
 10 11  1  0  0  0  0
 10 28  1  0  0  0  0
 10 29  1  0  0  0  0
 11 12  1  0  0  0  0
 11 30  1  0  0  0  0
 11 31  1  0  0  0  0
 12 13  1  0  0  0  0
 12 32  1  0  0  0  0
 12 33  1  0  0  0  0
 13 14  1  0  0  0  0
 13 34  1  0  0  0  0
 13 35  1  0  0  0  0
 14 15  1  0  0  0  0
 14 36  1  0  0  0  0
 14 37  1  0  0  0  0
 15 16  2  0  0  0  0
 15 22  1  0  0  0  0
 16 17  1  0  0  0  0
 16 38  1  0  0  0  0
 17 18  1  0  0  0  0
 17 20  2  0  0  0  0
 18 19  3  0  0  0  0
 19 39  1  0  0  0  0
 20 21  1  0  0  0  0
 20 40  1  0  0  0  0
 21 22  2  0  0  0  0
 21 41  1  0  0  0  0
 22 42  1  0  0  0  0
M  CHG  1  13   1
M  END
