4mwb_ligand
 OpenBabel08222323353D

 37 38  0  0  0  0  0  0  0  0999 V2000
   45.5090   13.8470  -13.0930 O   0  0  0  0  0  0  0  0  0  0  0  0
   44.2980   13.8770  -12.9100 C   0  0  0  0  0  0  0  0  0  0  0  0
   43.4770   14.7560  -13.6050 N   0  0  0  0  0  0  0  0  0  0  0  0
   43.8920   15.7840  -14.5010 C   0  0  0  0  0  0  0  0  0  0  0  0
   42.9990   16.7000  -15.1420 C   0  0  0  0  0  0  0  0  0  0  0  0
   43.6420   17.6190  -15.9220 C   0  0  0  0  0  0  0  0  0  0  0  0
   45.3250   17.3970  -15.8810 S   0  0  0  0  0  0  0  0  0  0  0  0
   45.2150   16.0630  -14.8360 C   0  0  0  0  0  0  0  0  0  0  0  0
   43.6800   13.0250  -12.0770 N   0  0  0  0  0  0  0  0  0  0  0  0
   44.4340   12.1390  -11.1980 C   0  0  0  0  0  0  0  0  0  0  0  0
   43.5550   11.4750  -10.1710 C   0  0  0  0  0  0  0  0  0  0  0  0
   43.1270   12.4090   -9.0680 C   0  0  0  0  0  0  0  0  0  0  0  0
   42.0550   11.8360   -8.2580 N   0  3  0  0  0  0  0  0  0  0  0  0
   41.7340   12.4450   -6.9970 C   0  0  0  0  0  0  0  0  0  0  0  0
   40.8320   13.6310   -7.0480 C   0  0  0  0  0  0  0  0  0  0  0  0
   39.4190   13.6190   -7.0820 C   0  0  0  0  0  0  0  0  0  0  0  0
   41.2960   14.8890   -7.0770 C   0  0  0  0  0  0  0  0  0  0  0  0
   42.9070   15.4280   -7.0340 Cl  0  0  0  0  0  0  0  0  0  0  0  0
   40.0860   16.1040   -7.1530 S   0  0  0  0  0  0  0  0  0  0  0  0
   38.8930   14.8590   -7.1320 C   0  0  0  0  0  0  0  0  0  0  0  0
   37.2220   15.2670   -7.1400 Cl  0  0  0  0  0  0  0  0  0  0  0  0
   42.4922   14.6573  -13.4618 H   0  0  0  0  0  0  0  0  0  0  0  0
   41.9173   16.6679  -15.0205 H   0  0  0  0  0  0  0  0  0  0  0  0
   43.1392   18.3952  -16.4969 H   0  0  0  0  0  0  0  0  0  0  0  0
   46.0714   15.4966  -14.4732 H   0  0  0  0  0  0  0  0  0  0  0  0
   42.6805   12.9973  -12.0588 H   0  0  0  0  0  0  0  0  0  0  0  0
   45.2044   12.7272  -10.6780 H   0  0  0  0  0  0  0  0  0  0  0  0
   44.9162   11.3609  -11.8080 H   0  0  0  0  0  0  0  0  0  0  0  0
   44.1098   10.6366   -9.7245 H   0  0  0  0  0  0  0  0  0  0  0  0
   42.6551   11.0924  -10.6748 H   0  0  0  0  0  0  0  0  0  0  0  0
   42.7718   13.3491   -9.5152 H   0  0  0  0  0  0  0  0  0  0  0  0
   43.9917   12.6149   -8.4201 H   0  0  0  0  0  0  0  0  0  0  0  0
   42.3075   10.8788   -8.0680 H   0  0  0  0  0  0  0  0  0  0  0  0
   41.2174   11.8577   -8.8183 H   0  0  0  0  0  0  0  0  0  0  0  0
   42.6772   12.7610   -6.5274 H   0  0  0  0  0  0  0  0  0  0  0  0
   41.2497   11.6821   -6.3698 H   0  0  0  0  0  0  0  0  0  0  0  0
   38.8215   12.7087   -7.0692 H   0  0  0  0  0  0  0  0  0  0  0  0
  1  2  2  0  0  0  0
  2  3  1  0  0  0  0
  2  9  1  0  0  0  0
  3  4  1  0  0  0  0
  3 22  1  0  0  0  0
  4  5  1  0  0  0  0
  4  8  2  0  0  0  0
  5  6  2  0  0  0  0
  5 23  1  0  0  0  0
  6  7  1  0  0  0  0
  6 24  1  0  0  0  0
  7  8  1  0  0  0  0
  8 25  1  0  0  0  0
  9 10  1  0  0  0  0
  9 26  1  0  0  0  0
 10 11  1  0  0  0  0
 10 27  1  0  0  0  0
 10 28  1  0  0  0  0
 11 12  1  0  0  0  0
 11 29  1  0  0  0  0
 11 30  1  0  0  0  0
 12 13  1  0  0  0  0
 12 31  1  0  0  0  0
 12 32  1  0  0  0  0
 13 14  1  0  0  0  0
 13 33  1  0  0  0  0
 13 34  1  0  0  0  0
 14 15  1  0  0  0  0
 14 35  1  0  0  0  0
 14 36  1  0  0  0  0
 15 16  1  0  0  0  0
 15 17  2  0  0  0  0
 16 20  2  0  0  0  0
 16 37  1  0  0  0  0
 17 18  1  0  0  0  0
 17 19  1  0  0  0  0
 19 20  1  0  0  0  0
 20 21  1  0  0  0  0
M  CHG  1  13   1
M  END
