4mwc_ligand
 OpenBabel08222323353D

 46 48  0  0  0  0  0  0  0  0999 V2000
  -45.5890   13.4810   13.2360 O   0  0  0  0  0  0  0  0  0  0  0  0
  -44.3920   13.6620   13.0110 C   0  0  0  0  0  0  0  0  0  0  0  0
  -43.6580   14.6570   13.6440 N   0  0  0  0  0  0  0  0  0  0  0  0
  -44.1070   15.6750   14.5170 C   0  0  0  0  0  0  0  0  0  0  0  0
  -43.1330   16.5250   15.1290 C   0  0  0  0  0  0  0  0  0  0  0  0
  -43.6740   17.4850   15.9090 C   0  0  0  0  0  0  0  0  0  0  0  0
  -45.3810   17.3820   15.9050 S   0  0  0  0  0  0  0  0  0  0  0  0
  -45.3910   16.0380   14.8680 C   0  0  0  0  0  0  0  0  0  0  0  0
  -43.6780   12.8800   12.1810 N   0  0  0  0  0  0  0  0  0  0  0  0
  -44.2880   11.8140   11.3980 C   0  0  0  0  0  0  0  0  0  0  0  0
  -43.3300   11.2250   10.3810 C   0  0  0  0  0  0  0  0  0  0  0  0
  -43.1330   12.1350    9.1940 C   0  0  0  0  0  0  0  0  0  0  0  0
  -42.3140   11.5300    8.1450 N   0  3  0  0  0  0  0  0  0  0  0  0
  -42.0680   12.2960    6.9120 C   0  0  0  0  0  0  0  0  0  0  0  0
  -41.6870   13.7470    7.0920 C   0  0  0  0  0  0  0  0  0  0  0  0
  -40.3030   14.1190    7.0650 C   0  0  0  0  0  0  0  0  0  0  0  0
  -39.1230   13.3830    6.9660 C   0  0  0  0  0  0  0  0  0  0  0  0
  -37.8970   14.0320    6.9590 C   0  0  0  0  0  0  0  0  0  0  0  0
  -37.8270   15.4090    7.0500 C   0  0  0  0  0  0  0  0  0  0  0  0
  -38.9800   16.1640    7.1520 C   0  0  0  0  0  0  0  0  0  0  0  0
  -40.2130   15.5190    7.1560 C   0  0  0  0  0  0  0  0  0  0  0  0
  -41.7760   16.2720    7.2630 S   0  0  0  0  0  0  0  0  0  0  0  0
  -42.5900   14.7400    7.2030 C   0  0  0  0  0  0  0  0  0  0  0  0
  -44.0840   14.7300    7.2720 C   0  0  0  0  0  0  0  0  0  0  0  0
  -42.6758   14.6529   13.4564 H   0  0  0  0  0  0  0  0  0  0  0  0
  -42.0604   16.4092   14.9804 H   0  0  0  0  0  0  0  0  0  0  0  0
  -43.1008   18.2250   16.4655 H   0  0  0  0  0  0  0  0  0  0  0  0
  -46.2912   15.5299   14.5254 H   0  0  0  0  0  0  0  0  0  0  0  0
  -42.6937   13.0362   12.0988 H   0  0  0  0  0  0  0  0  0  0  0  0
  -45.1612   12.2207   10.8669 H   0  0  0  0  0  0  0  0  0  0  0  0
  -44.6134   11.0155   12.0810 H   0  0  0  0  0  0  0  0  0  0  0  0
  -43.7335   10.2643   10.0284 H   0  0  0  0  0  0  0  0  0  0  0  0
  -42.3566   11.0583   10.8655 H   0  0  0  0  0  0  0  0  0  0  0  0
  -42.6405   13.0571    9.5362 H   0  0  0  0  0  0  0  0  0  0  0  0
  -44.1188   12.3806    8.7722 H   0  0  0  0  0  0  0  0  0  0  0  0
  -42.7649   10.6698    7.8752 H   0  0  0  0  0  0  0  0  0  0  0  0
  -41.4147   11.3249    8.5515 H   0  0  0  0  0  0  0  0  0  0  0  0
  -42.9865   12.2629    6.3076 H   0  0  0  0  0  0  0  0  0  0  0  0
  -41.2518   11.8001    6.3662 H   0  0  0  0  0  0  0  0  0  0  0  0
  -39.1637   12.3021    6.8944 H   0  0  0  0  0  0  0  0  0  0  0  0
  -36.9841   13.4527    6.8813 H   0  0  0  0  0  0  0  0  0  0  0  0
  -36.8609   15.9005    7.0413 H   0  0  0  0  0  0  0  0  0  0  0  0
  -38.9246   17.2439    7.2279 H   0  0  0  0  0  0  0  0  0  0  0  0
  -44.4538   15.7621    7.3608 H   0  0  0  0  0  0  0  0  0  0  0  0
  -44.4067   14.1482    8.1480 H   0  0  0  0  0  0  0  0  0  0  0  0
  -44.4902   14.2724    6.3579 H   0  0  0  0  0  0  0  0  0  0  0  0
  1  2  2  0  0  0  0
  2  3  1  0  0  0  0
  2  9  1  0  0  0  0
  3  4  1  0  0  0  0
  3 25  1  0  0  0  0
  4  5  1  0  0  0  0
  4  8  2  0  0  0  0
  5  6  2  0  0  0  0
  5 26  1  0  0  0  0
  6  7  1  0  0  0  0
  6 27  1  0  0  0  0
  7  8  1  0  0  0  0
  8 28  1  0  0  0  0
  9 10  1  0  0  0  0
  9 29  1  0  0  0  0
 10 11  1  0  0  0  0
 10 30  1  0  0  0  0
 10 31  1  0  0  0  0
 11 12  1  0  0  0  0
 11 32  1  0  0  0  0
 11 33  1  0  0  0  0
 12 13  1  0  0  0  0
 12 34  1  0  0  0  0
 12 35  1  0  0  0  0
 13 14  1  0  0  0  0
 13 36  1  0  0  0  0
 13 37  1  0  0  0  0
 14 15  1  0  0  0  0
 14 38  1  0  0  0  0
 14 39  1  0  0  0  0
 15 16  1  0  0  0  0
 15 23  2  0  0  0  0
 16 17  2  0  0  0  0
 16 21  1  0  0  0  0
 17 18  1  0  0  0  0
 17 40  1  0  0  0  0
 18 19  2  0  0  0  0
 18 41  1  0  0  0  0
 19 20  1  0  0  0  0
 19 42  1  0  0  0  0
 20 21  2  0  0  0  0
 20 43  1  0  0  0  0
 21 22  1  0  0  0  0
 22 23  1  0  0  0  0
 23 24  1  0  0  0  0
 24 44  1  0  0  0  0
 24 45  1  0  0  0  0
 24 46  1  0  0  0  0
M  CHG  1  13   1
M  END
