4mwe_ligand
 OpenBabel08222323353D

 55 56  0  0  0  0  0  0  0  0999 V2000
  -36.9120  -15.1650   -7.0110 Cl  0  0  0  0  0  0  0  0  0  0  0  0
  -38.6300  -14.8800   -7.0940 C   0  0  0  0  0  0  0  0  0  0  0  0
  -39.4970  -15.9470   -6.9630 C   0  0  0  0  0  0  0  0  0  0  0  0
  -40.8710  -15.7400   -7.0480 C   0  0  0  0  0  0  0  0  0  0  0  0
  -41.8180  -16.9290   -7.0640 C   0  0  0  0  0  0  0  0  0  0  0  0
  -41.5390  -17.9180   -6.0250 C   0  0  0  0  0  0  0  0  0  0  0  0
  -41.3470  -17.6760   -4.7890 C   0  0  0  0  0  0  0  0  0  0  0  0
  -41.3310  -14.4380   -7.2440 C   0  0  0  0  0  0  0  0  0  0  0  0
  -42.6870  -14.2230   -7.3810 O   0  0  0  0  0  0  0  0  0  0  0  0
  -43.5210  -14.2840   -6.2110 C   0  0  0  0  0  0  0  0  0  0  0  0
  -44.9420  -14.3870   -6.6610 C   0  0  0  0  0  0  0  0  0  0  0  0
  -45.3710  -14.6740   -7.8740 C   0  0  0  0  0  0  0  0  0  0  0  0
  -39.0870  -13.5980   -7.3050 C   0  0  0  0  0  0  0  0  0  0  0  0
  -40.4570  -13.3560   -7.3890 C   0  0  0  0  0  0  0  0  0  0  0  0
  -40.9840  -11.9780   -7.7190 C   0  0  0  0  0  0  0  0  0  0  0  0
  -41.2940  -11.8040   -9.1490 N   0  3  0  0  0  0  0  0  0  0  0  0
  -42.5640  -11.1010   -9.4150 C   0  0  0  0  0  0  0  0  0  0  0  0
  -43.7030  -12.0470   -9.8000 C   0  0  0  0  0  0  0  0  0  0  0  0
  -44.2180  -11.9470  -11.2280 C   0  0  0  0  0  0  0  0  0  0  0  0
  -43.5500  -12.8790  -12.1330 N   0  0  0  0  0  0  0  0  0  0  0  0
  -44.2240  -13.7300  -12.9390 C   0  0  0  0  0  0  0  0  0  0  0  0
  -45.4460  -13.6700  -13.1050 O   0  0  0  0  0  0  0  0  0  0  0  0
  -43.4330  -14.6860  -13.6130 N   0  0  0  0  0  0  0  0  0  0  0  0
  -43.8920  -15.7220  -14.4890 C   0  0  0  0  0  0  0  0  0  0  0  0
  -42.9610  -16.6850  -14.9910 C   0  0  0  0  0  0  0  0  0  0  0  0
  -43.5260  -17.6360  -15.7880 C   0  0  0  0  0  0  0  0  0  0  0  0
  -45.2460  -17.3700  -15.9360 S   0  0  0  0  0  0  0  0  0  0  0  0
  -45.1780  -15.9880  -14.9400 C   0  0  0  0  0  0  0  0  0  0  0  0
  -39.1080  -16.9446   -6.7942 H   0  0  0  0  0  0  0  0  0  0  0  0
  -41.7383  -17.4230   -8.0436 H   0  0  0  0  0  0  0  0  0  0  0  0
  -42.8437  -16.5576   -6.9230 H   0  0  0  0  0  0  0  0  0  0  0  0
  -41.4906  -18.9603   -6.3367 H   0  0  0  0  0  0  0  0  0  0  0  0
  -41.1458  -18.4940   -4.0989 H   0  0  0  0  0  0  0  0  0  0  0  0
  -41.3841  -16.6511   -4.4226 H   0  0  0  0  0  0  0  0  0  0  0  0
  -43.3855  -13.3739   -5.6083 H   0  0  0  0  0  0  0  0  0  0  0  0
  -43.2554  -15.1655   -5.6089 H   0  0  0  0  0  0  0  0  0  0  0  0
  -45.7053  -14.2055   -5.9058 H   0  0  0  0  0  0  0  0  0  0  0  0
  -46.4400  -14.7193   -8.0770 H   0  0  0  0  0  0  0  0  0  0  0  0
  -44.6564  -14.8658   -8.6731 H   0  0  0  0  0  0  0  0  0  0  0  0
  -38.3832  -12.7796   -7.4054 H   0  0  0  0  0  0  0  0  0  0  0  0
  -40.2249  -11.2352   -7.4326 H   0  0  0  0  0  0  0  0  0  0  0  0
  -41.9024  -11.8063   -7.1385 H   0  0  0  0  0  0  0  0  0  0  0  0
  -41.3434  -12.7165   -9.5744 H   0  0  0  0  0  0  0  0  0  0  0  0
  -40.5467  -11.2761   -9.5719 H   0  0  0  0  0  0  0  0  0  0  0  0
  -42.4051  -10.3904  -10.2395 H   0  0  0  0  0  0  0  0  0  0  0  0
  -42.8567  -10.5512   -8.5083 H   0  0  0  0  0  0  0  0  0  0  0  0
  -44.5479  -11.8440   -9.1255 H   0  0  0  0  0  0  0  0  0  0  0  0
  -43.3487  -13.0767   -9.6443 H   0  0  0  0  0  0  0  0  0  0  0  0
  -44.0512  -10.9223  -11.5917 H   0  0  0  0  0  0  0  0  0  0  0  0
  -45.2960  -12.1659  -11.2298 H   0  0  0  0  0  0  0  0  0  0  0  0
  -42.5503  -12.8880  -12.1575 H   0  0  0  0  0  0  0  0  0  0  0  0
  -42.4458  -14.6341  -13.4624 H   0  0  0  0  0  0  0  0  0  0  0  0
  -41.8975  -16.6607  -14.7578 H   0  0  0  0  0  0  0  0  0  0  0  0
  -42.9807  -18.4485  -16.2659 H   0  0  0  0  0  0  0  0  0  0  0  0
  -46.0461  -15.3816  -14.6859 H   0  0  0  0  0  0  0  0  0  0  0  0
  1  2  1  0  0  0  0
  2  3  2  0  0  0  0
  2 13  1  0  0  0  0
  3  4  1  0  0  0  0
  3 29  1  0  0  0  0
  4  5  1  0  0  0  0
  4  8  2  0  0  0  0
  5  6  1  0  0  0  0
  5 30  1  0  0  0  0
  5 31  1  0  0  0  0
  6  7  2  0  0  0  0
  6 32  1  0  0  0  0
  7 33  1  0  0  0  0
  7 34  1  0  0  0  0
  8  9  1  0  0  0  0
  8 14  1  0  0  0  0
  9 10  1  0  0  0  0
 10 11  1  0  0  0  0
 10 35  1  0  0  0  0
 10 36  1  0  0  0  0
 11 12  2  0  0  0  0
 11 37  1  0  0  0  0
 12 38  1  0  0  0  0
 12 39  1  0  0  0  0
 13 14  2  0  0  0  0
 13 40  1  0  0  0  0
 14 15  1  0  0  0  0
 15 16  1  0  0  0  0
 15 41  1  0  0  0  0
 15 42  1  0  0  0  0
 16 17  1  0  0  0  0
 16 43  1  0  0  0  0
 16 44  1  0  0  0  0
 17 18  1  0  0  0  0
 17 45  1  0  0  0  0
 17 46  1  0  0  0  0
 18 19  1  0  0  0  0
 18 47  1  0  0  0  0
 18 48  1  0  0  0  0
 19 20  1  0  0  0  0
 19 49  1  0  0  0  0
 19 50  1  0  0  0  0
 20 21  1  0  0  0  0
 20 51  1  0  0  0  0
 21 22  2  0  0  0  0
 21 23  1  0  0  0  0
 23 24  1  0  0  0  0
 23 52  1  0  0  0  0
 24 25  1  0  0  0  0
 24 28  2  0  0  0  0
 25 26  2  0  0  0  0
 25 53  1  0  0  0  0
 26 27  1  0  0  0  0
 26 54  1  0  0  0  0
 27 28  1  0  0  0  0
 28 55  1  0  0  0  0
M  CHG  1  16   1
M  END
