4mwu_ligand
 OpenBabel08222323353D

 48 48  0  0  1  0  0  0  0  0999 V2000
   63.6720   18.6520  -24.3430 C   0  0  2  0  0  0  0  0  0  0  0  0
   63.6360   17.2400  -23.7770 C   0  0  0  0  0  0  0  0  0  0  0  0
   62.5590   16.4400  -24.4250 C   0  0  1  0  0  0  0  0  0  0  0  0
   62.5440   16.5160  -25.9060 C   0  0  2  0  0  0  0  0  0  0  0  0
   62.5400   17.9350  -26.3780 C   0  0  1  0  0  0  0  0  0  0  0  0
   63.6580   18.7200  -25.7560 O   0  0  0  0  0  0  0  0  0  0  0  0
   64.6050   19.6350  -23.7610 C   0  0  0  0  0  0  0  0  0  0  0  0
   65.1450   19.4520  -22.6420 O   0  5  0  0  0  0  0  0  0  0  0  0
   64.8020   20.7000  -24.4060 O   0  0  0  0  0  0  0  0  0  0  0  0
   62.6860   18.0960  -27.8330 C   0  0  1  0  0  0  0  0  0  0  0  0
   62.4990   19.5690  -28.2320 C   0  0  1  0  0  0  0  0  0  0  0  0
   62.6530   19.7700  -29.7290 C   0  0  0  0  0  0  0  0  0  0  0  0
   61.7420   19.1140  -30.5470 O   0  0  0  0  0  0  0  0  0  0  0  0
   63.9770   17.6940  -28.2000 O   0  0  0  0  0  0  0  0  0  0  0  0
   64.1380   16.6470  -29.1130 C   0  0  0  0  0  0  0  0  0  0  0  0
   61.2600   20.0480  -27.8390 O   0  0  0  0  0  0  0  0  0  0  0  0
   62.7820   15.0230  -24.0680 N   0  0  0  0  0  0  0  0  0  0  0  0
   61.7780   14.0340  -23.8340 C   0  0  0  0  0  3  0  0  0  0  0  0
   60.5070   14.3540  -23.8890 N   0  0  0  0  0  0  0  0  0  0  0  0
   62.1020   12.8050  -23.5660 N   0  0  0  0  0  0  0  0  0  0  0  0
   61.6400   14.4680  -27.1150 C   0  0  0  0  0  0  0  0  0  0  0  0
   60.4510   13.7420  -27.6530 C   0  0  0  0  0  0  0  0  0  0  0  0
   62.7720   14.0080  -27.2120 O   0  0  0  0  0  0  0  0  0  0  0  0
   61.4150   15.7300  -26.4810 N   0  0  0  0  0  0  0  0  0  0  0  0
   62.6873   19.0466  -24.0521 H   0  0  0  0  0  0  0  0  0  0  0  0
   63.4472   17.2896  -22.6945 H   0  0  0  0  0  0  0  0  0  0  0  0
   64.6058   16.7535  -23.9582 H   0  0  0  0  0  0  0  0  0  0  0  0
   61.5859   16.7809  -24.0417 H   0  0  0  0  0  0  0  0  0  0  0  0
   63.4760   16.0564  -26.2667 H   0  0  0  0  0  0  0  0  0  0  0  0
   61.5798   18.3784  -26.0756 H   0  0  0  0  0  0  0  0  0  0  0  0
   61.9385   17.4761  -28.3496 H   0  0  0  0  0  0  0  0  0  0  0  0
   63.2760   20.1574  -27.7221 H   0  0  0  0  0  0  0  0  0  0  0  0
   63.6594   19.4256  -30.0090 H   0  0  0  0  0  0  0  0  0  0  0  0
   62.5650   20.8478  -29.9307 H   0  0  0  0  0  0  0  0  0  0  0  0
   60.8625   19.4058  -30.3374 H   0  0  0  0  0  0  0  0  0  0  0  0
   65.2104   16.4694  -29.2818 H   0  0  0  0  0  0  0  0  0  0  0  0
   63.6561   16.9135  -30.0652 H   0  0  0  0  0  0  0  0  0  0  0  0
   63.6743   15.7345  -28.7101 H   0  0  0  0  0  0  0  0  0  0  0  0
   61.1988   20.9729  -28.0470 H   0  0  0  0  0  0  0  0  0  0  0  0
   63.7616   14.7174  -23.9788 H   0  0  0  0  0  0  0  0  0  0  0  0
   59.7875   13.6367  -23.7194 H   0  0  0  0  0  0  0  0  0  0  0  0
   60.2285   15.3225  -24.1018 H   0  0  0  0  0  0  0  0  0  0  0  0
   63.0942   12.5327  -23.5181 H   0  0  0  0  0  0  0  0  0  0  0  0
   61.3667   12.1027  -23.4014 H   0  0  0  0  0  0  0  0  0  0  0  0
   59.5427   14.3313  -27.4586 H   0  0  0  0  0  0  0  0  0  0  0  0
   60.3652   12.7626  -27.1596 H   0  0  0  0  0  0  0  0  0  0  0  0
   60.5692   13.5974  -28.7370 H   0  0  0  0  0  0  0  0  0  0  0  0
   60.4845   16.0915  -26.4223 H   0  0  0  0  0  0  0  0  0  0  0  0
  1  7  1  0  0  0  0
  1 25  1  1  0  0  0
  2  1  1  0  0  0  0
  2 26  1  0  0  0  0
  2 27  1  0  0  0  0
  3  2  1  0  0  0  0
  3 17  1  0  0  0  0
  3 28  1  1  0  0  0
  4  3  1  0  0  0  0
  4  5  1  0  0  0  0
  4 29  1  6  0  0  0
  5  6  1  0  0  0  0
  5 10  1  0  0  0  0
  5 30  1  1  0  0  0
  6  1  1  0  0  0  0
  7  8  1  0  0  0  0
  7  9  2  0  0  0  0
 10 11  1  0  0  0  0
 10 14  1  0  0  0  0
 10 31  1  6  0  0  0
 11 12  1  0  0  0  0
 11 16  1  0  0  0  0
 11 32  1  1  0  0  0
 12 13  1  0  0  0  0
 12 33  1  0  0  0  0
 12 34  1  0  0  0  0
 13 35  1  0  0  0  0
 14 15  1  0  0  0  0
 15 36  1  0  0  0  0
 15 37  1  0  0  0  0
 15 38  1  0  0  0  0
 16 39  1  0  0  0  0
 17 18  1  0  0  0  0
 17 40  1  0  0  0  0
 18 19  1  0  0  0  0
 18 20  1  0  0  0  0
 19 41  1  0  0  0  0
 19 42  1  0  0  0  0
 20 43  1  0  0  0  0
 20 44  1  0  0  0  0
 21 22  1  0  0  0  0
 21 23  2  0  0  0  0
 21 24  1  0  0  0  0
 22 45  1  0  0  0  0
 22 46  1  0  0  0  0
 22 47  1  0  0  0  0
 24  4  1  0  0  0  0
 24 48  1  0  0  0  0
M  CHG  1   8  -1
M  END
