4mwx_ligand
 OpenBabel08222323353D

 45 45  0  0  1  0  0  0  0  0999 V2000
  -23.7730  -64.7420  -19.4470 C   0  0  0  0  0  0  0  0  0  0  0  0
  -24.4320  -65.0710  -20.4720 O   0  5  0  0  0  0  0  0  0  0  0  0
  -22.5160  -64.9190  -19.4420 O   0  0  0  0  0  0  0  0  0  0  0  0
  -24.5190  -64.1850  -18.2540 C   0  0  1  0  0  0  0  0  0  0  0  0
  -23.7590  -63.3620  -17.3810 C   0  0  0  0  0  0  0  0  0  0  0  0
  -24.4640  -62.4600  -16.5180 C   0  0  1  0  0  0  0  0  0  0  0  0
  -25.9450  -62.5670  -16.5640 C   0  0  1  0  0  0  0  0  0  0  0  0
  -26.5740  -61.4710  -15.8260 N   0  0  0  0  0  0  0  0  0  0  0  0
  -27.1950  -61.6480  -14.5640 C   0  0  0  0  0  0  0  0  0  0  0  0
  -27.2310  -62.7900  -14.0110 O   0  0  0  0  0  0  0  0  0  0  0  0
  -27.8120  -60.4320  -13.8890 C   0  0  0  0  0  0  0  0  0  0  0  0
  -26.5510  -62.5720  -17.9730 C   0  0  1  0  0  0  0  0  0  0  0  0
  -25.7800  -63.6120  -18.7750 O   0  0  0  0  0  0  0  0  0  0  0  0
  -27.9290  -62.8380  -18.0680 C   0  0  2  0  0  0  0  0  0  0  0  0
  -28.2260  -64.1040  -17.6010 O   0  0  0  0  0  0  0  0  0  0  0  0
  -28.3050  -62.7950  -19.5540 C   0  0  2  0  0  0  0  0  0  0  0  0
  -27.9060  -61.6000  -20.1210 O   0  0  0  0  0  0  0  0  0  0  0  0
  -29.7700  -62.9070  -19.7500 C   0  0  0  0  0  0  0  0  0  0  0  0
  -30.5840  -61.8900  -19.1890 O   0  0  0  0  0  0  0  0  0  0  0  0
  -24.0960  -62.7500  -15.0600 N   0  0  0  0  0  0  0  0  0  0  0  0
  -23.9050  -61.7440  -14.0340 C   0  0  0  0  0  3  0  0  0  0  0  0
  -23.9990  -60.4710  -14.3200 N   0  0  0  0  0  0  0  0  0  0  0  0
  -23.6220  -62.1080  -12.7950 N   0  0  0  0  0  0  0  0  0  0  0  0
  -24.8063  -65.0488  -17.6365 H   0  0  0  0  0  0  0  0  0  0  0  0
  -23.0861  -62.7567  -18.0062 H   0  0  0  0  0  0  0  0  0  0  0  0
  -23.1633  -64.0286  -16.7400 H   0  0  0  0  0  0  0  0  0  0  0  0
  -24.1712  -61.4339  -16.7853 H   0  0  0  0  0  0  0  0  0  0  0  0
  -26.2149  -63.5166  -16.0789 H   0  0  0  0  0  0  0  0  0  0  0  0
  -26.5654  -60.5563  -16.2300 H   0  0  0  0  0  0  0  0  0  0  0  0
  -28.2506  -60.7307  -12.9255 H   0  0  0  0  0  0  0  0  0  0  0  0
  -28.5974  -60.0130  -14.5352 H   0  0  0  0  0  0  0  0  0  0  0  0
  -27.0341  -59.6732  -13.7183 H   0  0  0  0  0  0  0  0  0  0  0  0
  -26.3815  -61.5781  -18.4129 H   0  0  0  0  0  0  0  0  0  0  0  0
  -28.4969  -62.0856  -17.5010 H   0  0  0  0  0  0  0  0  0  0  0  0
  -29.1606  -64.2570  -17.6765 H   0  0  0  0  0  0  0  0  0  0  0  0
  -27.8052  -63.6297  -20.0672 H   0  0  0  0  0  0  0  0  0  0  0  0
  -28.1466  -61.5909  -21.0400 H   0  0  0  0  0  0  0  0  0  0  0  0
  -30.0892  -63.8641  -19.3117 H   0  0  0  0  0  0  0  0  0  0  0  0
  -29.9578  -62.9193  -20.8338 H   0  0  0  0  0  0  0  0  0  0  0  0
  -30.3429  -61.0506  -19.5630 H   0  0  0  0  0  0  0  0  0  0  0  0
  -23.9749  -63.7359  -14.7874 H   0  0  0  0  0  0  0  0  0  0  0  0
  -23.8611  -59.7658  -13.5820 H   0  0  0  0  0  0  0  0  0  0  0  0
  -24.2109  -60.1738  -15.2832 H   0  0  0  0  0  0  0  0  0  0  0  0
  -23.5451  -63.1071  -12.5566 H   0  0  0  0  0  0  0  0  0  0  0  0
  -23.4784  -61.3925  -12.0681 H   0  0  0  0  0  0  0  0  0  0  0  0
  1  2  1  0  0  0  0
  1  3  2  0  0  0  0
  1  4  1  0  0  0  0
  4  5  1  0  0  0  0
  4 13  1  0  0  0  0
  4 24  1  1  0  0  0
  5  6  1  0  0  0  0
  5 25  1  0  0  0  0
  5 26  1  0  0  0  0
  6  7  1  0  0  0  0
  6 20  1  0  0  0  0
  6 27  1  6  0  0  0
  7  8  1  0  0  0  0
  7 12  1  0  0  0  0
  7 28  1  1  0  0  0
  8  9  1  0  0  0  0
  8 29  1  0  0  0  0
  9 10  2  0  0  0  0
  9 11  1  0  0  0  0
 11 30  1  0  0  0  0
 11 31  1  0  0  0  0
 11 32  1  0  0  0  0
 12 13  1  0  0  0  0
 12 14  1  0  0  0  0
 12 33  1  6  0  0  0
 14 15  1  0  0  0  0
 14 16  1  0  0  0  0
 14 34  1  1  0  0  0
 15 35  1  0  0  0  0
 16 17  1  0  0  0  0
 16 18  1  0  0  0  0
 16 36  1  6  0  0  0
 17 37  1  0  0  0  0
 18 19  1  0  0  0  0
 18 38  1  0  0  0  0
 18 39  1  0  0  0  0
 19 40  1  0  0  0  0
 20 21  1  0  0  0  0
 20 41  1  0  0  0  0
 21 22  1  0  0  0  0
 21 23  1  0  0  0  0
 22 42  1  0  0  0  0
 22 43  1  0  0  0  0
 23 44  1  0  0  0  0
 23 45  1  0  0  0  0
M  CHG  1   2  -1
M  END
