4mxa_ligand
 OpenBabel08222323353D

 57 61  0  0  0  0  0  0  0  0999 V2000
   -3.0150  -23.5160  -31.0310 N   0  0  0  0  0  0  0  0  0  0  0  0
   -4.1610  -22.9450  -30.7230 C   0  0  0  0  0  0  0  0  0  0  0  0
   -4.2260  -21.6280  -30.5690 N   0  0  0  0  0  0  0  0  0  0  0  0
   -3.1350  -20.8570  -30.7550 C   0  0  0  0  0  0  0  0  0  0  0  0
   -1.9240  -21.4290  -31.0890 C   0  0  0  0  0  0  0  0  0  0  0  0
   -1.8880  -22.7930  -31.2320 C   0  0  0  0  0  0  0  0  0  0  0  0
    8.4400  -21.4820  -31.7110 C   0  0  0  0  0  0  0  0  0  0  0  0
   -0.7640  -23.3990  -31.5310 N   0  0  0  0  0  0  0  0  0  0  0  0
    4.4220  -21.4450  -33.8300 C   0  0  0  0  0  0  0  0  0  0  0  0
    1.1100  -19.8990  -30.4990 C   0  0  0  0  0  0  0  0  0  0  0  0
    3.0380  -21.4490  -33.7790 C   0  0  0  0  0  0  0  0  0  0  0  0
    2.4890  -19.8960  -30.5610 C   0  0  0  0  0  0  0  0  0  0  0  0
    4.4670  -20.3820  -31.6690 C   0  0  0  0  0  0  0  0  0  0  0  0
    0.9720  -20.9320  -32.6080 C   0  0  0  0  0  0  0  0  0  0  0  0
    6.9460  -21.8630  -31.8670 C   0  0  0  0  0  0  0  0  0  0  0  0
   -5.2600  -17.0790  -27.1410 C   0  0  0  0  0  0  0  0  0  0  0  0
   -2.8630  -16.7780  -27.1060 C   0  0  0  0  0  0  0  0  0  0  0  0
   -5.2530  -17.4910  -28.5820 C   0  0  0  0  0  0  0  0  0  0  0  0
   -2.7430  -17.3090  -28.5480 C   0  0  0  0  0  0  0  0  0  0  0  0
   -3.8920  -18.5420  -30.3590 C   0  0  0  0  0  0  0  0  0  0  0  0
   -1.7300  -19.2600  -30.9130 N   0  0  0  0  0  0  0  0  0  0  0  0
   -4.1780  -16.0990  -26.9210 N   0  3  0  0  0  0  0  0  0  0  0  0
    6.4670  -20.8710  -32.7920 O   0  0  0  0  0  0  0  0  0  0  0  0
    5.1210  -20.9040  -32.7710 C   0  0  0  0  0  0  0  0  0  0  0  0
    0.3310  -20.4220  -31.4900 C   0  0  0  0  0  0  0  0  0  0  0  0
   -1.0380  -20.3610  -31.2220 C   0  0  0  0  0  0  0  0  0  0  0  0
    3.1090  -20.4040  -31.6500 C   0  0  0  0  0  0  0  0  0  0  0  0
    2.3630  -20.9230  -32.6810 C   0  0  0  0  0  0  0  0  0  0  0  0
   -3.9360  -18.2120  -28.8760 C   0  0  0  0  0  0  0  0  0  0  0  0
   -2.8980  -19.5540  -30.6690 N   0  0  0  0  0  0  0  0  0  0  0  0
   -5.0512  -23.5503  -30.5952 H   0  0  0  0  0  0  0  0  0  0  0  0
    8.9258  -22.1809  -31.0141 H   0  0  0  0  0  0  0  0  0  0  0  0
    8.5181  -20.4579  -31.3171 H   0  0  0  0  0  0  0  0  0  0  0  0
    8.9367  -21.5368  -32.6909 H   0  0  0  0  0  0  0  0  0  0  0  0
    0.0930  -22.8485  -31.6838 H   0  0  0  0  0  0  0  0  0  0  0  0
   -0.7383  -24.4254  -31.6130 H   0  0  0  0  0  0  0  0  0  0  0  0
    4.9452  -21.8585  -34.6846 H   0  0  0  0  0  0  0  0  0  0  0  0
    0.6269  -19.4691  -29.6290 H   0  0  0  0  0  0  0  0  0  0  0  0
    2.4732  -21.8670  -34.6045 H   0  0  0  0  0  0  0  0  0  0  0  0
    3.0710  -19.4891  -29.7420 H   0  0  0  0  0  0  0  0  0  0  0  0
    5.0260  -19.9648  -30.8392 H   0  0  0  0  0  0  0  0  0  0  0  0
    0.3898  -21.3386  -33.4270 H   0  0  0  0  0  0  0  0  0  0  0  0
    6.4166  -21.7980  -30.9050 H   0  0  0  0  0  0  0  0  0  0  0  0
    6.8352  -22.8769  -32.2788 H   0  0  0  0  0  0  0  0  0  0  0  0
   -5.0956  -17.9604  -26.5037 H   0  0  0  0  0  0  0  0  0  0  0  0
   -6.2290  -16.6219  -26.8919 H   0  0  0  0  0  0  0  0  0  0  0  0
   -2.0520  -16.0603  -26.9133 H   0  0  0  0  0  0  0  0  0  0  0  0
   -2.7844  -17.6183  -26.4005 H   0  0  0  0  0  0  0  0  0  0  0  0
   -5.3394  -16.6009  -29.2226 H   0  0  0  0  0  0  0  0  0  0  0  0
   -6.0978  -18.1675  -28.7783 H   0  0  0  0  0  0  0  0  0  0  0  0
   -1.8117  -17.8859  -28.6472 H   0  0  0  0  0  0  0  0  0  0  0  0
   -2.7252  -16.4607  -29.2481 H   0  0  0  0  0  0  0  0  0  0  0  0
   -3.6506  -17.6261  -30.9182 H   0  0  0  0  0  0  0  0  0  0  0  0
   -4.8809  -18.9109  -30.6688 H   0  0  0  0  0  0  0  0  0  0  0  0
   -4.2399  -15.7318  -25.9843 H   0  0  0  0  0  0  0  0  0  0  0  0
   -4.2651  -15.3448  -27.5840 H   0  0  0  0  0  0  0  0  0  0  0  0
   -3.8774  -19.1350  -28.2804 H   0  0  0  0  0  0  0  0  0  0  0  0
  1  2  2  0  0  0  0
  2 31  1  0  0  0  0
  3  2  1  0  0  0  0
  4  3  2  0  0  0  0
  5  4  1  0  0  0  0
  5  6  2  0  0  0  0
  6  1  1  0  0  0  0
  6  8  1  0  0  0  0
  7 32  1  0  0  0  0
  7 33  1  0  0  0  0
  7 34  1  0  0  0  0
  8 35  1  0  0  0  0
  8 36  1  0  0  0  0
  9 24  1  0  0  0  0
  9 37  1  0  0  0  0
 10 12  2  0  0  0  0
 10 38  1  0  0  0  0
 11  9  2  0  0  0  0
 11 39  1  0  0  0  0
 12 27  1  0  0  0  0
 12 40  1  0  0  0  0
 13 24  2  0  0  0  0
 13 41  1  0  0  0  0
 14 28  1  0  0  0  0
 14 42  1  0  0  0  0
 15  7  1  0  0  0  0
 15 43  1  0  0  0  0
 15 44  1  0  0  0  0
 16 22  1  0  0  0  0
 16 45  1  0  0  0  0
 16 46  1  0  0  0  0
 17 22  1  0  0  0  0
 17 47  1  0  0  0  0
 17 48  1  0  0  0  0
 18 16  1  0  0  0  0
 18 49  1  0  0  0  0
 18 50  1  0  0  0  0
 19 17  1  0  0  0  0
 19 51  1  0  0  0  0
 19 52  1  0  0  0  0
 20 29  1  0  0  0  0
 20 53  1  0  0  0  0
 20 54  1  0  0  0  0
 21 30  1  0  0  0  0
 22 55  1  0  0  0  0
 22 56  1  0  0  0  0
 23 15  1  0  0  0  0
 24 23  1  0  0  0  0
 25 10  1  0  0  0  0
 25 14  2  0  0  0  0
 25 26  1  0  0  0  0
 26  5  1  0  0  0  0
 26 21  2  0  0  0  0
 27 13  1  0  0  0  0
 27 28  2  0  0  0  0
 28 11  1  0  0  0  0
 29 18  1  0  0  0  0
 29 19  1  0  0  0  0
 29 57  1  0  0  0  0
 30  4  1  0  0  0  0
 30 20  1  0  0  0  0
M  CHG  1  22   1
M  END
