4mxc_ligand
 OpenBabel08222323353D

 65 69  0  0  1  0  0  0  0  0999 V2000
  -10.1310   19.8590  -30.9890 C   0  0  0  0  0  0  0  0  0  0  0  0
  -11.4480   19.4510  -30.7280 C   0  0  0  0  0  0  0  0  0  0  0  0
  -12.4230   20.4240  -30.4960 C   0  0  0  0  0  0  0  0  0  0  0  0
  -12.0790   21.7250  -30.5520 N   0  0  0  0  0  0  0  0  0  0  0  0
   -9.8510   21.1670  -31.0220 N   0  0  0  0  0  0  0  0  0  0  0  0
   -5.8980   22.0780  -28.4080 C   0  0  0  0  0  0  0  0  0  0  0  0
   -5.0100   23.4790  -28.9910 S   0  0  0  0  0  0  0  0  0  0  0  0
   -3.5830   23.2490  -28.9180 O   0  0  0  0  0  0  0  0  0  0  0  0
   -5.1460   24.6540  -28.1530 O   0  0  0  0  0  0  0  0  0  0  0  0
   -5.5020   23.7620  -30.6640 C   0  0  0  0  0  0  0  0  0  0  0  0
   -6.8790   24.3520  -30.7110 C   0  0  0  0  0  0  0  0  0  0  0  0
   -8.0180   23.5380  -30.7330 C   0  0  0  0  0  0  0  0  0  0  0  0
   -6.9860   25.7330  -30.7380 C   0  0  0  0  0  0  0  0  0  0  0  0
   -8.2300   26.3390  -30.7890 C   0  0  0  0  0  0  0  0  0  0  0  0
   -9.3630   25.5360  -30.8200 C   0  0  0  0  0  0  0  0  0  0  0  0
   -9.2680   24.1500  -30.7940 C   0  0  0  0  0  0  0  0  0  0  0  0
  -10.5290   23.4670  -30.8300 N   0  0  0  0  0  0  0  0  0  0  0  0
  -10.8090   22.0660  -30.7990 C   0  0  0  0  0  0  0  0  0  0  0  0
   -9.0780   18.9990  -31.2230 O   0  0  0  0  0  0  0  0  0  0  0  0
   -9.2360   17.7440  -30.6860 C   0  0  0  0  0  0  0  0  0  0  0  0
   -9.3320   16.6750  -31.5500 C   0  0  0  0  0  0  0  0  0  0  0  0
   -9.2900   16.9170  -32.8560 F   0  0  0  0  0  0  0  0  0  0  0  0
   -9.4900   15.3790  -31.0750 C   0  0  0  0  0  0  0  0  0  0  0  0
   -9.2700   17.5600  -29.3130 C   0  0  0  0  0  0  0  0  0  0  0  0
   -9.4250   16.2650  -28.8320 C   0  0  0  0  0  0  0  0  0  0  0  0
   -9.5090   15.1920  -29.6940 C   0  0  0  0  0  0  0  0  0  0  0  0
   -9.7130   13.8930  -29.1110 N   0  0  0  0  0  0  0  0  0  0  0  0
   -9.5950   12.6310  -29.7520 C   0  0  0  0  0  0  0  0  0  0  0  0
   -9.2340   12.4710  -30.9000 O   0  0  0  0  0  0  0  0  0  0  0  0
   -9.9440   11.4990  -28.8460 C   0  0  1  0  0  0  0  0  0  0  0  0
  -10.5320   10.3290  -29.5690 C   0  0  0  0  0  0  0  0  0  0  0  0
   -9.1030   10.2980  -29.1560 C   0  0  0  0  0  0  0  0  0  0  0  0
  -10.3040   11.6570  -27.4060 C   0  0  0  0  0  0  0  0  0  0  0  0
  -10.3400   12.7920  -26.9200 O   0  0  0  0  0  0  0  0  0  0  0  0
  -10.5960   10.5230  -26.6170 N   0  0  0  0  0  0  0  0  0  0  0  0
  -10.9280   10.6810  -25.2240 C   0  0  0  0  0  0  0  0  0  0  0  0
  -11.9540   11.5410  -24.8250 C   0  0  0  0  0  0  0  0  0  0  0  0
  -12.2210   11.6560  -23.4630 C   0  0  0  0  0  0  0  0  0  0  0  0
  -11.4820   10.9330  -22.5460 C   0  0  0  0  0  0  0  0  0  0  0  0
  -11.7580   11.0620  -21.2490 F   0  0  0  0  0  0  0  0  0  0  0  0
  -10.4650   10.0830  -22.9520 C   0  0  0  0  0  0  0  0  0  0  0  0
  -10.1890    9.9580  -24.3090 C   0  0  0  0  0  0  0  0  0  0  0  0
  -11.7045   18.3980  -30.7068 H   0  0  0  0  0  0  0  0  0  0  0  0
  -13.4440   20.1355  -30.2736 H   0  0  0  0  0  0  0  0  0  0  0  0
   -5.7434   21.2337  -29.0959 H   0  0  0  0  0  0  0  0  0  0  0  0
   -6.9702   22.3183  -28.3577 H   0  0  0  0  0  0  0  0  0  0  0  0
   -5.5359   21.8054  -27.4057 H   0  0  0  0  0  0  0  0  0  0  0  0
   -5.4982   22.8068  -31.2094 H   0  0  0  0  0  0  0  0  0  0  0  0
   -4.7934   24.4575  -31.1375 H   0  0  0  0  0  0  0  0  0  0  0  0
   -7.9294   22.4580  -30.7033 H   0  0  0  0  0  0  0  0  0  0  0  0
   -6.0901   26.3430  -30.7191 H   0  0  0  0  0  0  0  0  0  0  0  0
   -8.3180   27.4193  -30.8044 H   0  0  0  0  0  0  0  0  0  0  0  0
  -10.3415   26.0002  -30.8654 H   0  0  0  0  0  0  0  0  0  0  0  0
  -11.3564   24.0778  -30.8867 H   0  0  0  0  0  0  0  0  0  0  0  0
   -9.5949   14.5417  -31.7554 H   0  0  0  0  0  0  0  0  0  0  0  0
   -9.1785   18.4005  -28.6345 H   0  0  0  0  0  0  0  0  0  0  0  0
   -9.4807   16.0961  -27.7627 H   0  0  0  0  0  0  0  0  0  0  0  0
   -9.9669   13.8765  -28.1439 H   0  0  0  0  0  0  0  0  0  0  0  0
  -11.3843    9.8496  -30.0482 H   0  0  0  0  0  0  0  0  0  0  0  0
   -8.1457    9.7807  -29.1115 H   0  0  0  0  0  0  0  0  0  0  0  0
  -10.5724    9.6103  -27.0250 H   0  0  0  0  0  0  0  0  0  0  0  0
  -12.5260   12.1028  -25.5546 H   0  0  0  0  0  0  0  0  0  0  0  0
  -13.0111   12.3148  -23.1211 H   0  0  0  0  0  0  0  0  0  0  0  0
   -9.8925    9.5232  -22.2213 H   0  0  0  0  0  0  0  0  0  0  0  0
   -9.3987    9.2972  -24.6463 H   0  0  0  0  0  0  0  0  0  0  0  0
  1  2  2  0  0  0  0
  1 19  1  0  0  0  0
  2 43  1  0  0  0  0
  3  2  1  0  0  0  0
  3 44  1  0  0  0  0
  4  3  2  0  0  0  0
  5  1  1  0  0  0  0
  6 45  1  0  0  0  0
  6 46  1  0  0  0  0
  6 47  1  0  0  0  0
  7  6  1  0  0  0  0
  7  8  2  0  0  0  0
  7  9  2  0  0  0  0
 10  7  1  0  0  0  0
 10 48  1  0  0  0  0
 10 49  1  0  0  0  0
 11 10  1  0  0  0  0
 11 13  1  0  0  0  0
 12 11  2  0  0  0  0
 12 50  1  0  0  0  0
 13 51  1  0  0  0  0
 14 13  2  0  0  0  0
 14 52  1  0  0  0  0
 15 14  1  0  0  0  0
 15 53  1  0  0  0  0
 16 12  1  0  0  0  0
 16 15  2  0  0  0  0
 17 16  1  0  0  0  0
 17 18  1  0  0  0  0
 17 54  1  0  0  0  0
 18  4  1  0  0  0  0
 18  5  2  0  0  0  0
 19 20  1  0  0  0  0
 20 21  2  0  0  0  0
 20 24  1  0  0  0  0
 21 22  1  0  0  0  0
 21 23  1  0  0  0  0
 23 26  2  0  0  0  0
 23 55  1  0  0  0  0
 24 25  2  0  0  0  0
 24 56  1  0  0  0  0
 25 26  1  0  0  0  0
 25 57  1  0  0  0  0
 26 27  1  0  0  0  0
 27 28  1  0  0  0  0
 27 58  1  0  0  0  0
 28 29  2  0  0  0  0
 30 28  1  6  0  0  0
 30 31  1  0  0  0  0
 30 32  1  0  0  0  0
 30 33  1  0  0  0  0
 31 32  2  0  0  0  0
 31 59  1  0  0  0  0
 32 60  1  0  0  0  0
 33 34  2  0  0  0  0
 33 35  1  0  0  0  0
 35 36  1  0  0  0  0
 35 61  1  0  0  0  0
 36 37  2  0  0  0  0
 36 42  1  0  0  0  0
 37 38  1  0  0  0  0
 37 62  1  0  0  0  0
 38 39  2  0  0  0  0
 38 63  1  0  0  0  0
 39 40  1  0  0  0  0
 39 41  1  0  0  0  0
 41 42  2  0  0  0  0
 41 64  1  0  0  0  0
 42 65  1  0  0  0  0
M  END
