4my6_ligand
 OpenBabel08222323353D

 87 93  0  0  1  0  0  0  0  0999 V2000
   20.9950   -8.6690  -17.3670 C   0  0  0  0  0  0  0  0  0  0  0  0
   21.1490   -9.7410  -16.7700 O   0  0  0  0  0  0  0  0  0  0  0  0
   20.7270   -8.6650  -18.8460 C   0  0  0  0  0  0  0  0  0  0  0  0
   24.0640   -9.5550  -13.9650 Cl  0  0  0  0  0  0  0  0  0  0  0  0
   24.4720   -8.9890  -15.5390 C   0  0  0  0  0  0  0  0  0  0  0  0
   25.3810   -9.7580  -16.3060 C   0  0  0  0  0  0  0  0  0  0  0  0
   25.7120   -9.2810  -17.5660 C   0  0  0  0  0  0  0  0  0  0  0  0
   25.1970   -8.0910  -18.0780 C   0  0  0  0  0  0  0  0  0  0  0  0
   24.2970   -7.3180  -17.2960 C   0  0  0  0  0  0  0  0  0  0  0  0
   23.9600   -7.7500  -16.0060 C   0  0  0  0  0  0  0  0  0  0  0  0
   22.9810   -6.9540  -15.1660 C   0  0  0  0  0  0  0  0  0  0  0  0
   21.5230   -7.4530  -15.2960 C   0  0  2  0  0  0  0  0  0  0  0  0
   21.0700   -7.4650  -16.7200 N   0  0  0  0  0  0  0  0  0  0  0  0
   20.6400   -6.5130  -14.5610 C   0  0  0  0  0  0  0  0  0  0  0  0
   20.2920   -5.4710  -15.0640 O   0  0  0  0  0  0  0  0  0  0  0  0
   20.2740   -6.8100  -13.2720 N   0  0  0  0  0  0  0  0  0  0  0  0
   20.6160   -8.0600  -12.5670 C   0  0  0  0  0  0  0  0  0  0  0  0
   20.3000   -7.7250  -11.1040 C   0  0  0  0  0  0  0  0  0  0  0  0
   19.1750   -6.7160  -11.1890 C   0  0  0  0  0  0  0  0  0  0  0  0
   19.4970   -5.8610  -12.4310 C   0  0  1  0  0  0  0  0  0  0  0  0
   20.3740   -4.6990  -12.0720 C   0  0  0  0  0  0  0  0  0  0  0  0
   21.6160   -4.7110  -12.0360 O   0  0  0  0  0  0  0  0  0  0  0  0
   19.7340   -3.5420  -11.7770 N   0  0  0  0  0  0  0  0  0  0  0  0
   18.2340   -5.4310  -13.1550 C   0  0  0  0  0  0  0  0  0  0  0  0
   17.6380   -4.2430  -12.9030 C   0  0  0  0  0  0  0  0  0  0  0  0
   18.2850   -3.3060  -11.9120 C   0  0  2  0  0  0  0  0  0  0  0  0
   18.1550   -1.8210  -12.2470 C   0  0  0  0  0  0  0  0  0  0  0  0
   19.3780   -1.2160  -11.5350 C   0  0  0  0  0  0  0  0  0  0  0  0
   20.4600   -2.3030  -11.4820 C   0  0  1  0  0  0  0  0  0  0  0  0
   21.0890   -2.3760  -10.1140 C   0  0  0  0  0  0  0  0  0  0  0  0
   20.7270   -3.2250   -9.2940 O   0  0  0  0  0  0  0  0  0  0  0  0
   22.0920   -1.4860   -9.8070 N   0  0  0  0  0  0  0  0  0  0  0  0
   22.7160   -0.5270  -10.7890 C   0  0  0  0  0  0  0  0  0  0  0  0
   24.1050   -0.2480  -10.2500 C   0  0  0  0  0  0  0  0  0  0  0  0
   23.8190   -0.3060   -8.7450 C   0  0  1  0  0  0  0  0  0  0  0  0
   22.8400   -1.4820   -8.5560 C   0  0  1  0  0  0  0  0  0  0  0  0
   21.9740   -1.2590   -7.3430 C   0  0  0  0  0  0  0  0  0  0  0  0
   20.7500   -0.9780   -7.3840 O   0  0  0  0  0  0  0  0  0  0  0  0
   25.0100   -0.5090   -7.8730 C   0  0  0  0  0  0  0  0  0  0  0  0
   25.0730   -1.1990   -6.7110 C   0  0  0  0  0  0  0  0  0  0  0  0
   23.9960   -1.9440   -6.0000 C   0  0  1  0  0  0  0  0  0  0  0  0
   24.3050   -1.9910   -4.4970 C   0  0  0  0  0  0  0  0  0  0  0  0
   23.0310   -1.6200   -3.7720 C   0  0  0  0  0  0  0  0  0  0  0  0
   21.9630   -1.2710   -4.8160 C   0  0  2  0  0  0  0  0  0  0  0  0
   22.6110   -1.3860   -6.1380 N   0  0  0  0  0  0  0  0  0  0  0  0
   21.5240    0.1300   -4.5540 C   0  0  0  0  0  0  0  0  0  0  0  0
   20.5060    0.3100   -3.8070 O   0  5  0  0  0  0  0  0  0  0  0  0
   22.1980    1.0570   -5.0850 O   0  0  0  0  0  0  0  0  0  0  0  0
   20.6192   -7.6278  -19.1963 H   0  0  0  0  0  0  0  0  0  0  0  0
   19.7999   -9.2199  -19.0522 H   0  0  0  0  0  0  0  0  0  0  0  0
   21.5658   -9.1443  -19.3720 H   0  0  0  0  0  0  0  0  0  0  0  0
   25.8009  -10.6815  -15.9241 H   0  0  0  0  0  0  0  0  0  0  0  0
   26.3983   -9.8565  -18.1766 H   0  0  0  0  0  0  0  0  0  0  0  0
   25.4821   -7.7567  -19.0690 H   0  0  0  0  0  0  0  0  0  0  0  0
   23.8748   -6.4022  -17.6937 H   0  0  0  0  0  0  0  0  0  0  0  0
   23.0205   -5.9021  -15.4852 H   0  0  0  0  0  0  0  0  0  0  0  0
   23.2836   -7.0287  -14.1111 H   0  0  0  0  0  0  0  0  0  0  0  0
   21.4421   -8.4649  -14.8724 H   0  0  0  0  0  0  0  0  0  0  0  0
   20.8279   -6.6152  -17.1883 H   0  0  0  0  0  0  0  0  0  0  0  0
   21.6799   -8.3085  -12.6953 H   0  0  0  0  0  0  0  0  0  0  0  0
   19.9983   -8.8974  -12.9236 H   0  0  0  0  0  0  0  0  0  0  0  0
   21.1781   -7.2891  -10.6051 H   0  0  0  0  0  0  0  0  0  0  0  0
   19.9772   -8.6242  -10.5588 H   0  0  0  0  0  0  0  0  0  0  0  0
   19.1485   -6.0897  -10.2851 H   0  0  0  0  0  0  0  0  0  0  0  0
   18.2076   -7.2252  -11.3107 H   0  0  0  0  0  0  0  0  0  0  0  0
   17.7959   -6.0967  -13.8972 H   0  0  0  0  0  0  0  0  0  0  0  0
   16.7111   -3.9685  -13.4044 H   0  0  0  0  0  0  0  0  0  0  0  0
   17.8029   -3.4853  -10.9397 H   0  0  0  0  0  0  0  0  0  0  0  0
   17.2171   -1.4040  -11.8514 H   0  0  0  0  0  0  0  0  0  0  0  0
   18.2023   -1.6519  -13.3329 H   0  0  0  0  0  0  0  0  0  0  0  0
   19.1050   -0.9068  -10.5153 H   0  0  0  0  0  0  0  0  0  0  0  0
   19.7471   -0.3447  -12.0959 H   0  0  0  0  0  0  0  0  0  0  0  0
   21.2392   -2.1152  -12.2354 H   0  0  0  0  0  0  0  0  0  0  0  0
   22.1306    0.4026  -10.8444 H   0  0  0  0  0  0  0  0  0  0  0  0
   22.7752   -0.9832  -11.7882 H   0  0  0  0  0  0  0  0  0  0  0  0
   24.4720    0.7420  -10.5585 H   0  0  0  0  0  0  0  0  0  0  0  0
   24.8260   -1.0191  -10.5591 H   0  0  0  0  0  0  0  0  0  0  0  0
   23.3359    0.6349   -8.4429 H   0  0  0  0  0  0  0  0  0  0  0  0
   23.3844   -2.4300   -8.4337 H   0  0  0  0  0  0  0  0  0  0  0  0
   25.9375   -0.0485   -8.2102 H   0  0  0  0  0  0  0  0  0  0  0  0
   26.0484   -1.2118   -6.2270 H   0  0  0  0  0  0  0  0  0  0  0  0
   23.9885   -2.9690   -6.3992 H   0  0  0  0  0  0  0  0  0  0  0  0
   25.1016   -1.2729   -4.2524 H   0  0  0  0  0  0  0  0  0  0  0  0
   24.6228   -3.0037   -4.2081 H   0  0  0  0  0  0  0  0  0  0  0  0
   23.2130   -0.7513   -3.1222 H   0  0  0  0  0  0  0  0  0  0  0  0
   22.6902   -2.4694   -3.1618 H   0  0  0  0  0  0  0  0  0  0  0  0
   21.1052   -1.9564   -4.7495 H   0  0  0  0  0  0  0  0  0  0  0  0
  1  2  2  0  0  0  0
  1  3  1  0  0  0  0
  3 49  1  0  0  0  0
  3 50  1  0  0  0  0
  3 51  1  0  0  0  0
  5  4  1  0  0  0  0
  5  6  2  0  0  0  0
  6  7  1  0  0  0  0
  6 52  1  0  0  0  0
  7 53  1  0  0  0  0
  8  7  2  0  0  0  0
  8 54  1  0  0  0  0
  9  8  1  0  0  0  0
  9 55  1  0  0  0  0
 10  5  1  0  0  0  0
 10  9  2  0  0  0  0
 11 10  1  0  0  0  0
 11 56  1  0  0  0  0
 11 57  1  0  0  0  0
 12 11  1  0  0  0  0
 12 13  1  0  0  0  0
 12 14  1  0  0  0  0
 12 58  1  1  0  0  0
 13  1  1  0  0  0  0
 13 59  1  0  0  0  0
 14 15  2  0  0  0  0
 14 16  1  0  0  0  0
 16 17  1  0  0  0  0
 16 20  1  0  0  0  0
 17 18  1  0  0  0  0
 17 60  1  0  0  0  0
 17 61  1  0  0  0  0
 18 19  1  0  0  0  0
 18 62  1  0  0  0  0
 18 63  1  0  0  0  0
 19 20  1  0  0  0  0
 19 64  1  0  0  0  0
 19 65  1  0  0  0  0
 20 21  1  1  0  0  0
 20 24  1  0  0  0  0
 21 22  2  0  0  0  0
 21 23  1  0  0  0  0
 23 26  1  0  0  0  0
 23 29  1  0  0  0  0
 24 25  2  0  0  0  0
 24 66  1  0  0  0  0
 25 26  1  0  0  0  0
 25 67  1  0  0  0  0
 26 27  1  0  0  0  0
 26 68  1  1  0  0  0
 27 28  1  0  0  0  0
 27 69  1  0  0  0  0
 27 70  1  0  0  0  0
 28 29  1  0  0  0  0
 28 71  1  0  0  0  0
 28 72  1  0  0  0  0
 29 30  1  0  0  0  0
 29 73  1  6  0  0  0
 30 31  2  0  0  0  0
 30 32  1  0  0  0  0
 32 33  1  0  0  0  0
 32 36  1  0  0  0  0
 33 34  1  0  0  0  0
 33 74  1  0  0  0  0
 33 75  1  0  0  0  0
 34 35  1  0  0  0  0
 34 76  1  0  0  0  0
 34 77  1  0  0  0  0
 35 36  1  0  0  0  0
 35 39  1  0  0  0  0
 35 78  1  1  0  0  0
 36 37  1  0  0  0  0
 36 79  1  1  0  0  0
 37 38  2  0  0  0  0
 37 45  1  0  0  0  0
 39 40  2  0  0  0  0
 39 80  1  0  0  0  0
 40 41  1  0  0  0  0
 40 81  1  0  0  0  0
 41 42  1  0  0  0  0
 41 45  1  0  0  0  0
 41 82  1  6  0  0  0
 42 43  1  0  0  0  0
 42 83  1  0  0  0  0
 42 84  1  0  0  0  0
 43 44  1  0  0  0  0
 43 85  1  0  0  0  0
 43 86  1  0  0  0  0
 44 45  1  0  0  0  0
 44 46  1  0  0  0  0
 44 87  1  1  0  0  0
 46 47  1  0  0  0  0
 46 48  2  0  0  0  0
M  CHG  1  47  -1
M  END
