4myh_ligand
 OpenBabel08222323353D

 36 35  0  0  1  0  0  0  0  0999 V2000
   49.2940  -60.7770  -92.4120 N   0  3  0  0  0  0  0  0  0  0  0  0
   48.2180  -59.9210  -91.9700 C   0  0  2  0  0  0  0  0  0  0  0  0
   46.9120  -60.4880  -92.4440 C   0  0  0  0  0  0  0  0  0  0  0  0
   46.0750  -60.9780  -91.6090 O   0  5  0  0  0  0  0  0  0  0  0  0
   46.6260  -60.4550  -93.6950 O   0  0  0  0  0  0  0  0  0  0  0  0
   48.4300  -58.4990  -92.4360 C   0  0  0  0  0  0  0  0  0  0  0  0
   48.6640  -57.5370  -91.2930 C   0  0  0  0  0  0  0  0  0  0  0  0
   48.2690  -56.1430  -91.7890 C   0  0  0  0  0  0  0  0  0  0  0  0
   49.1190  -55.2200  -91.7290 O   0  0  0  0  0  0  0  0  0  0  0  0
   46.9190  -55.9620  -92.3020 N   0  0  0  0  0  0  0  0  0  0  0  0
   46.3830  -54.7170  -92.8240 C   0  0  2  0  0  0  0  0  0  0  0  0
   45.7070  -53.7730  -91.8220 C   0  0  0  0  0  0  0  0  0  0  0  0
   44.8760  -52.9380  -92.1900 O   0  0  0  0  0  0  0  0  0  0  0  0
   45.6420  -54.9130  -94.1330 C   0  0  0  0  0  0  0  0  0  0  0  0
   46.5580  -54.1030  -95.3970 S   0  0  0  0  0  0  0  0  0  0  0  0
   46.0900  -53.8470  -90.4230 N   0  0  0  0  0  0  0  0  0  0  0  0
   45.5140  -52.9750  -89.4140 C   0  0  0  0  0  0  0  0  0  0  0  0
   46.2500  -51.6570  -89.4160 C   0  0  0  0  0  0  0  0  0  0  0  0
   45.6490  -50.5860  -89.0790 O   0  5  0  0  0  0  0  0  0  0  0  0
   47.4650  -51.6180  -89.7490 O   0  0  0  0  0  0  0  0  0  0  0  0
   50.1741  -60.4006  -92.0962 H   0  0  0  0  0  0  0  0  0  0  0  0
   49.2918  -60.8268  -93.4188 H   0  0  0  0  0  0  0  0  0  0  0  0
   49.1671  -61.7009  -92.0295 H   0  0  0  0  0  0  0  0  0  0  0  0
   48.2091  -59.9153  -90.8701 H   0  0  0  0  0  0  0  0  0  0  0  0
   47.5378  -58.1744  -92.9916 H   0  0  0  0  0  0  0  0  0  0  0  0
   49.3056  -58.4739  -93.1014 H   0  0  0  0  0  0  0  0  0  0  0  0
   49.7248  -57.5474  -91.0024 H   0  0  0  0  0  0  0  0  0  0  0  0
   48.0444  -57.8196  -90.4292 H   0  0  0  0  0  0  0  0  0  0  0  0
   46.3128  -56.7573  -92.2945 H   0  0  0  0  0  0  0  0  0  0  0  0
   47.2831  -54.1563  -93.1164 H   0  0  0  0  0  0  0  0  0  0  0  0
   44.6352  -54.4756  -94.0620 H   0  0  0  0  0  0  0  0  0  0  0  0
   45.5604  -55.9863  -94.3596 H   0  0  0  0  0  0  0  0  0  0  0  0
   46.0852  -54.2187  -96.2797 H   0  0  0  0  0  0  0  0  0  0  0  0
   46.7738  -54.5215  -90.1447 H   0  0  0  0  0  0  0  0  0  0  0  0
   45.6068  -53.4463  -88.4244 H   0  0  0  0  0  0  0  0  0  0  0  0
   44.4513  -52.8029  -89.6400 H   0  0  0  0  0  0  0  0  0  0  0  0
  1  2  1  0  0  0  0
  1 21  1  0  0  0  0
  1 22  1  0  0  0  0
  1 23  1  0  0  0  0
  2  3  1  0  0  0  0
  2  6  1  0  0  0  0
  2 24  1  1  0  0  0
  3  4  1  0  0  0  0
  3  5  2  0  0  0  0
  6  7  1  0  0  0  0
  6 25  1  0  0  0  0
  6 26  1  0  0  0  0
  7  8  1  0  0  0  0
  7 27  1  0  0  0  0
  7 28  1  0  0  0  0
  8  9  2  0  0  0  0
  8 10  1  0  0  0  0
 10 11  1  0  0  0  0
 10 29  1  0  0  0  0
 11 12  1  0  0  0  0
 11 14  1  0  0  0  0
 11 30  1  6  0  0  0
 12 13  2  0  0  0  0
 12 16  1  0  0  0  0
 14 15  1  0  0  0  0
 14 31  1  0  0  0  0
 14 32  1  0  0  0  0
 15 33  1  0  0  0  0
 16 17  1  0  0  0  0
 16 34  1  0  0  0  0
 17 18  1  0  0  0  0
 17 35  1  0  0  0  0
 17 36  1  0  0  0  0
 18 19  1  0  0  0  0
 18 20  2  0  0  0  0
M  CHG  3   1   1   4  -1  19  -1
M  END
