4mz4_ligand
 OpenBabel08222323353D

 49 53  0  0  0  0  0  0  0  0999 V2000
   28.8710   43.3020   41.5260 C   0  0  0  0  0  0  0  0  0  0  0  0
   27.6340   43.1240   40.8470 C   0  0  0  0  0  0  0  0  0  0  0  0
   27.5450   43.3270   39.4470 C   0  0  0  0  0  0  0  0  0  0  0  0
   26.6270   42.5670   43.0020 C   0  0  0  0  0  0  0  0  0  0  0  0
   26.5240   42.7520   41.6090 C   0  0  0  0  0  0  0  0  0  0  0  0
   27.8910   42.7400   43.5590 C   0  0  0  0  0  0  0  0  0  0  0  0
   23.0380   45.9050   46.0710 C   0  0  0  0  0  0  0  0  0  0  0  0
   24.2840   43.8180   48.2010 C   0  0  0  0  0  0  0  0  0  0  0  0
   24.9310   42.7620   48.8860 C   0  0  0  0  0  0  0  0  0  0  0  0
   24.3340   43.8570   46.7790 C   0  0  0  0  0  0  0  0  0  0  0  0
   25.0040   42.8220   46.0880 C   0  0  0  0  0  0  0  0  0  0  0  0
   24.2000   44.2660   44.5300 C   0  0  0  0  0  0  0  0  0  0  0  0
   23.8270   44.7390   45.7930 C   0  0  0  0  0  0  0  0  0  0  0  0
   23.9150   44.9160   43.2530 C   0  0  0  0  0  0  0  0  0  0  0  0
   25.4250   42.1380   43.7570 C   0  0  0  0  0  0  0  0  0  0  0  0
   21.7220   46.0860   45.3350 C   0  0  0  0  0  0  0  0  0  0  0  0
   21.3690   48.1240   46.6100 C   0  0  0  0  0  0  0  0  0  0  0  0
   23.3710   46.8190   47.0080 C   0  0  0  0  0  0  0  0  0  0  0  0
   28.6770   43.7050   38.7230 C   0  0  0  0  0  0  0  0  0  0  0  0
   29.8850   43.8880   39.3800 C   0  0  0  0  0  0  0  0  0  0  0  0
   29.9780   43.6880   40.7660 C   0  0  0  0  0  0  0  0  0  0  0  0
   28.9940   43.1070   42.8640 N   0  0  0  0  0  0  0  0  0  0  0  0
   24.8900   43.0740   44.7520 N   0  0  0  0  0  0  0  0  0  0  0  0
   25.6070   41.7860   48.1480 C   0  0  0  0  0  0  0  0  0  0  0  0
   25.6430   41.7770   46.7580 C   0  0  0  0  0  0  0  0  0  0  0  0
   23.9020   46.1230   43.0820 O   0  5  0  0  0  0  0  0  0  0  0  0
   20.9840   47.2090   45.6630 N   0  0  0  0  0  0  0  0  0  0  0  0
   22.5200   47.9710   47.2860 C   0  0  0  0  0  0  0  0  0  0  0  0
   21.3470   45.2720   44.4740 O   0  0  0  0  0  0  0  0  0  0  0  0
   23.5850   44.0490   42.2770 O   0  0  0  0  0  0  0  0  0  0  0  0
   24.9260   42.6810   50.3950 C   0  0  0  0  0  0  0  0  0  0  0  0
   26.2570   40.8090   48.7960 F   0  0  0  0  0  0  0  0  0  0  0  0
   26.5977   43.1887   38.9385 H   0  0  0  0  0  0  0  0  0  0  0  0
   25.5677   42.6032   41.1207 H   0  0  0  0  0  0  0  0  0  0  0  0
   28.0001   42.5690   44.6238 H   0  0  0  0  0  0  0  0  0  0  0  0
   23.7567   44.5879   48.7526 H   0  0  0  0  0  0  0  0  0  0  0  0
   25.6793   41.2058   44.2826 H   0  0  0  0  0  0  0  0  0  0  0  0
   24.6275   41.9408   43.0256 H   0  0  0  0  0  0  0  0  0  0  0  0
   20.7342   48.9845   46.8162 H   0  0  0  0  0  0  0  0  0  0  0  0
   24.2959   46.6932   47.5689 H   0  0  0  0  0  0  0  0  0  0  0  0
   28.6124   43.8550   37.6514 H   0  0  0  0  0  0  0  0  0  0  0  0
   30.7630   44.1875   38.8191 H   0  0  0  0  0  0  0  0  0  0  0  0
   30.9320   43.8366   41.2589 H   0  0  0  0  0  0  0  0  0  0  0  0
   26.1488   40.9873   46.2143 H   0  0  0  0  0  0  0  0  0  0  0  0
   22.2599   47.9257   48.3538 H   0  0  0  0  0  0  0  0  0  0  0  0
   23.1253   48.8691   47.0938 H   0  0  0  0  0  0  0  0  0  0  0  0
   24.3509   43.5241   50.8055 H   0  0  0  0  0  0  0  0  0  0  0  0
   25.9598   42.7262   50.7681 H   0  0  0  0  0  0  0  0  0  0  0  0
   24.4636   41.7339   50.7099 H   0  0  0  0  0  0  0  0  0  0  0  0
  1 21  2  0  0  0  0
  2  1  1  0  0  0  0
  2  3  2  0  0  0  0
  3 19  1  0  0  0  0
  3 33  1  0  0  0  0
  4  5  2  0  0  0  0
  4  6  1  0  0  0  0
  5  2  1  0  0  0  0
  5 34  1  0  0  0  0
  6 22  2  0  0  0  0
  6 35  1  0  0  0  0
  7 16  1  0  0  0  0
  7 18  2  0  0  0  0
  8  9  2  0  0  0  0
  8 36  1  0  0  0  0
  9 24  1  0  0  0  0
  9 31  1  0  0  0  0
 10  8  1  0  0  0  0
 11 10  2  0  0  0  0
 11 25  1  0  0  0  0
 12 13  2  0  0  0  0
 12 14  1  0  0  0  0
 13  7  1  0  0  0  0
 13 10  1  0  0  0  0
 14 26  1  0  0  0  0
 14 30  2  0  0  0  0
 15  4  1  0  0  0  0
 15 23  1  0  0  0  0
 15 37  1  0  0  0  0
 15 38  1  0  0  0  0
 16 27  1  0  0  0  0
 16 29  2  0  0  0  0
 17 28  1  0  0  0  0
 17 39  1  0  0  0  0
 18 28  1  0  0  0  0
 18 40  1  0  0  0  0
 19 20  2  0  0  0  0
 19 41  1  0  0  0  0
 20 21  1  0  0  0  0
 20 42  1  0  0  0  0
 21 43  1  0  0  0  0
 22  1  1  0  0  0  0
 23 11  1  0  0  0  0
 23 12  1  0  0  0  0
 24 25  2  0  0  0  0
 24 32  1  0  0  0  0
 25 44  1  0  0  0  0
 27 17  2  0  0  0  0
 28 45  1  0  0  0  0
 28 46  1  0  0  0  0
 31 47  1  0  0  0  0
 31 48  1  0  0  0  0
 31 49  1  0  0  0  0
M  CHG  1  26  -1
M  END
