4mzh_ligand
 OpenBabel08222323353D

123122  0  0  1  0  0  0  0  0999 V2000
    6.5620    9.2200   -5.7010 N   0  3  0  0  0  0  0  0  0  0  0  0
    7.1050    8.9440   -4.3780 C   0  0  2  0  0  0  0  0  0  0  0  0
    8.5600    8.4870   -4.4520 C   0  0  0  0  0  0  0  0  0  0  0  0
    9.0570    8.1430   -5.5240 O   0  0  0  0  0  0  0  0  0  0  0  0
    6.2570    7.9020   -3.6730 C   0  0  0  0  0  0  0  0  0  0  0  0
    9.2350    8.4910   -3.3040 N   0  0  0  0  0  0  0  0  0  0  0  0
   10.6220    8.0430   -3.2180 C   0  0  2  0  0  0  0  0  0  0  0  0
   10.7420    6.5560   -3.5200 C   0  0  0  0  0  0  0  0  0  0  0  0
    9.7630    5.8160   -3.4850 O   0  0  0  0  0  0  0  0  0  0  0  0
   11.1900    8.2960   -1.8210 C   0  0  0  0  0  0  0  0  0  0  0  0
   11.2470    9.7450   -1.4080 C   0  0  0  0  0  0  0  0  0  0  0  0
   11.7960    9.8730    0.0020 C   0  0  0  0  0  0  0  0  0  0  0  0
   11.6800   11.2410    0.4840 N   0  0  0  0  0  0  0  0  0  0  0  0
   12.5630   12.1960    0.2160 C   0  0  0  0  0  3  0  0  0  0  0  0
   13.6310   11.9280   -0.5260 N   0  0  0  0  0  0  0  0  0  0  0  0
   12.3830   13.4180    0.6950 N   0  0  0  0  0  0  0  0  0  0  0  0
   11.9660    6.1290   -3.8010 N   0  0  0  0  0  0  0  0  0  0  0  0
   12.2690    4.7230   -3.9980 C   0  0  2  0  0  0  0  0  0  0  0  0
   13.0690    4.2350   -2.7910 C   0  0  0  0  0  0  0  0  0  0  0  0
   13.8660    4.9840   -2.2310 O   0  0  0  0  0  0  0  0  0  0  0  0
   13.0930    4.4960   -5.2730 C   0  0  2  0  0  0  0  0  0  0  0  0
   12.7340    5.4560   -6.2740 O   0  0  0  0  0  0  0  0  0  0  0  0
   12.8660    3.1000   -5.8140 C   0  0  0  0  0  0  0  0  0  0  0  0
   12.8630    2.9830   -2.3940 N   0  0  0  0  0  0  0  0  0  0  0  0
   13.6190    2.4200   -1.3030 C   0  0  1  0  0  0  0  0  0  0  0  0
   12.9310    1.2480   -0.5910 C   0  0  0  0  0  0  0  0  0  0  0  0
   11.9910    1.7510    0.4800 C   0  0  0  0  0  0  0  0  0  0  0  0
   12.6200    1.5440    1.8420 C   0  0  0  0  0  0  0  0  0  0  0  0
   11.5280    1.8510    2.8520 C   0  0  0  0  0  0  0  0  0  0  0  0
   11.9700    2.4940    4.1340 N   0  3  0  0  0  0  0  0  0  0  0  0
   14.9840    1.9040   -1.7280 C   0  0  0  0  0  0  0  0  0  0  0  0
   15.1530    1.1560   -2.6920 O   0  0  0  0  0  0  0  0  0  0  0  0
   12.8290    3.6800    3.8430 C   0  0  0  0  0  0  0  0  0  0  0  0
   12.6790    1.5110    5.0050 C   0  0  0  0  0  0  0  0  0  0  0  0
   10.7420    2.9570    4.8400 C   0  0  0  0  0  0  0  0  0  0  0  0
   16.0000    2.3210   -0.9790 N   0  0  0  0  0  0  0  0  0  0  0  0
   17.3380    1.7800   -1.1760 C   0  0  2  0  0  0  0  0  0  0  0  0
   17.4690    0.4620   -0.4260 C   0  0  0  0  0  0  0  0  0  0  0  0
   16.4720   -0.1830   -0.0970 O   0  0  0  0  0  0  0  0  0  0  0  0
   18.4050    2.7650   -0.6890 C   0  0  0  0  0  0  0  0  0  0  0  0
   18.4100    4.0990   -1.4200 C   0  0  0  0  0  0  0  0  0  0  0  0
   19.5900    4.9660   -1.0280 C   0  0  0  0  0  0  0  0  0  0  0  0
   20.7460    4.5700   -1.1870 O   0  0  0  0  0  0  0  0  0  0  0  0
   19.3050    6.1520   -0.5050 N   0  0  0  0  0  0  0  0  0  0  0  0
   18.7070    0.0690   -0.1570 N   0  0  0  0  0  0  0  0  0  0  0  0
   18.9740   -1.1290    0.6280 C   0  0  2  0  0  0  0  0  0  0  0  0
   20.1960   -0.9400    1.5320 C   0  0  0  0  0  0  0  0  0  0  0  0
   21.1010   -0.1580    1.2120 O   0  0  0  0  0  0  0  0  0  0  0  0
   19.1440   -2.3730   -0.2720 C   0  0  2  0  0  0  0  0  0  0  0  0
   18.3100   -3.4350    0.2080 O   0  0  0  0  0  0  0  0  0  0  0  0
   20.5970   -2.8410   -0.3140 C   0  0  0  0  0  0  0  0  0  0  0  0
   20.2040   -1.6650    2.6520 N   0  0  0  0  0  0  0  0  0  0  0  0
   21.2320   -1.5410    3.6870 C   0  0  2  0  0  0  0  0  0  0  0  0
   22.6310   -1.8390    3.1620 C   0  0  0  0  0  0  0  0  0  0  0  0
   22.8620   -2.8860    2.5660 O   0  5  0  0  0  0  0  0  0  0  0  0
   20.9070   -2.4600    4.8670 C   0  0  0  0  0  0  0  0  0  0  0  0
    5.6030    9.5183   -5.6150 H   0  0  0  0  0  0  0  0  0  0  0  0
    6.6048    8.3842   -6.2628 H   0  0  0  0  0  0  0  0  0  0  0  0
    7.1023    9.9485   -6.1407 H   0  0  0  0  0  0  0  0  0  0  0  0
    7.0689    9.8743   -3.7921 H   0  0  0  0  0  0  0  0  0  0  0  0
    6.6761    7.7017   -2.6759 H   0  0  0  0  0  0  0  0  0  0  0  0
    6.2525    6.9731   -4.2621 H   0  0  0  0  0  0  0  0  0  0  0  0
    5.2276    8.2757   -3.5697 H   0  0  0  0  0  0  0  0  0  0  0  0
    8.7773    8.8110   -2.4745 H   0  0  0  0  0  0  0  0  0  0  0  0
   11.2155    8.6057   -3.9536 H   0  0  0  0  0  0  0  0  0  0  0  0
   12.2127    7.8922   -1.7904 H   0  0  0  0  0  0  0  0  0  0  0  0
   10.5619    7.7590   -1.0950 H   0  0  0  0  0  0  0  0  0  0  0  0
   10.2337   10.1717   -1.4424 H   0  0  0  0  0  0  0  0  0  0  0  0
   11.8999   10.2942   -2.1022 H   0  0  0  0  0  0  0  0  0  0  0  0
   12.8562    9.5798    0.0034 H   0  0  0  0  0  0  0  0  0  0  0  0
   11.2304    9.2069    0.6702 H   0  0  0  0  0  0  0  0  0  0  0  0
   10.8659   11.4827    1.0668 H   0  0  0  0  0  0  0  0  0  0  0  0
   14.3143   12.6706   -0.7323 H   0  0  0  0  0  0  0  0  0  0  0  0
   13.7762   10.9775   -0.8953 H   0  0  0  0  0  0  0  0  0  0  0  0
   11.5554   13.6287    1.2709 H   0  0  0  0  0  0  0  0  0  0  0  0
   13.0706   14.1574    0.4915 H   0  0  0  0  0  0  0  0  0  0  0  0
   12.7049    6.7981   -3.8798 H   0  0  0  0  0  0  0  0  0  0  0  0
   11.3288    4.1571   -4.0734 H   0  0  0  0  0  0  0  0  0  0  0  0
   14.1592    4.6147   -5.0297 H   0  0  0  0  0  0  0  0  0  0  0  0
   13.2508    5.3042   -7.0566 H   0  0  0  0  0  0  0  0  0  0  0  0
   13.4646    2.9584   -6.7260 H   0  0  0  0  0  0  0  0  0  0  0  0
   11.8000    2.9674   -6.0508 H   0  0  0  0  0  0  0  0  0  0  0  0
   13.1686    2.3602   -5.0583 H   0  0  0  0  0  0  0  0  0  0  0  0
   12.1751    2.4248   -2.8579 H   0  0  0  0  0  0  0  0  0  0  0  0
   13.7657    3.2269   -0.5700 H   0  0  0  0  0  0  0  0  0  0  0  0
   13.6961    0.6074   -0.1280 H   0  0  0  0  0  0  0  0  0  0  0  0
   12.3598    0.6634   -1.3272 H   0  0  0  0  0  0  0  0  0  0  0  0
   11.0429    1.1959    0.4259 H   0  0  0  0  0  0  0  0  0  0  0  0
   11.7979    2.8227    0.3245 H   0  0  0  0  0  0  0  0  0  0  0  0
   13.4714    2.2269    1.9787 H   0  0  0  0  0  0  0  0  0  0  0  0
   12.9624    0.5045    1.9520 H   0  0  0  0  0  0  0  0  0  0  0  0
   11.0307    0.9034    3.1064 H   0  0  0  0  0  0  0  0  0  0  0  0
   10.8058    2.5263    2.3700 H   0  0  0  0  0  0  0  0  0  0  0  0
   13.1471    4.1432    4.7887 H   0  0  0  0  0  0  0  0  0  0  0  0
   12.2577    4.4102    3.2510 H   0  0  0  0  0  0  0  0  0  0  0  0
   13.7152    3.3604    3.2750 H   0  0  0  0  0  0  0  0  0  0  0  0
   12.0203    0.6518    5.1997 H   0  0  0  0  0  0  0  0  0  0  0  0
   12.9464    1.9913    5.9578 H   0  0  0  0  0  0  0  0  0  0  0  0
   13.5927    1.1653    4.4995 H   0  0  0  0  0  0  0  0  0  0  0  0
   10.2082    3.6831    4.2092 H   0  0  0  0  0  0  0  0  0  0  0  0
   11.0233    3.4340    5.7904 H   0  0  0  0  0  0  0  0  0  0  0  0
   10.0880    2.0957    5.0414 H   0  0  0  0  0  0  0  0  0  0  0  0
   15.8443    3.0126   -0.2737 H   0  0  0  0  0  0  0  0  0  0  0  0
   17.4911    1.5972   -2.2498 H   0  0  0  0  0  0  0  0  0  0  0  0
   19.3915    2.2967   -0.8213 H   0  0  0  0  0  0  0  0  0  0  0  0
   18.2317    2.9592    0.3797 H   0  0  0  0  0  0  0  0  0  0  0  0
   17.4809    4.6370   -1.1805 H   0  0  0  0  0  0  0  0  0  0  0  0
   18.4551    3.9089   -2.5025 H   0  0  0  0  0  0  0  0  0  0  0  0
   20.0434    6.7667   -0.2278 H   0  0  0  0  0  0  0  0  0  0  0  0
   18.3518    6.4309   -0.3882 H   0  0  0  0  0  0  0  0  0  0  0  0
   19.4757    0.6080   -0.5013 H   0  0  0  0  0  0  0  0  0  0  0  0
   18.1020   -1.3026    1.2757 H   0  0  0  0  0  0  0  0  0  0  0  0
   18.8323   -2.1097   -1.2935 H   0  0  0  0  0  0  0  0  0  0  0  0
   18.4181   -4.1973   -0.3486 H   0  0  0  0  0  0  0  0  0  0  0  0
   20.6786   -3.7258   -0.9625 H   0  0  0  0  0  0  0  0  0  0  0  0
   20.9285   -3.0996    0.7025 H   0  0  0  0  0  0  0  0  0  0  0  0
   21.2305   -2.0348   -0.7123 H   0  0  0  0  0  0  0  0  0  0  0  0
   19.4688   -2.3283    2.7919 H   0  0  0  0  0  0  0  0  0  0  0  0
   21.2224   -0.5015    4.0467 H   0  0  0  0  0  0  0  0  0  0  0  0
   23.5573   -1.0039    3.3413 O   0  0  0  0  0  0  0  0  0  0  0  0
   21.6860   -2.3576    5.6369 H   0  0  0  0  0  0  0  0  0  0  0  0
   20.8694   -3.5031    4.5199 H   0  0  0  0  0  0  0  0  0  0  0  0
   19.9321   -2.1797    5.2924 H   0  0  0  0  0  0  0  0  0  0  0  0
  1  2  1  0  0  0  0
  1 57  1  0  0  0  0
  1 58  1  0  0  0  0
  1 59  1  0  0  0  0
  2  3  1  0  0  0  0
  2  5  1  0  0  0  0
  2 60  1  1  0  0  0
  3  4  2  0  0  0  0
  3  6  1  0  0  0  0
  5 61  1  0  0  0  0
  5 62  1  0  0  0  0
  5 63  1  0  0  0  0
  6  7  1  0  0  0  0
  6 64  1  0  0  0  0
  7  8  1  0  0  0  0
  7 10  1  0  0  0  0
  7 65  1  6  0  0  0
  8  9  2  0  0  0  0
  8 17  1  0  0  0  0
 10 11  1  0  0  0  0
 10 66  1  0  0  0  0
 10 67  1  0  0  0  0
 11 12  1  0  0  0  0
 11 68  1  0  0  0  0
 11 69  1  0  0  0  0
 12 13  1  0  0  0  0
 12 70  1  0  0  0  0
 12 71  1  0  0  0  0
 13 14  1  0  0  0  0
 13 72  1  0  0  0  0
 14 15  1  0  0  0  0
 14 16  1  0  0  0  0
 15 73  1  0  0  0  0
 15 74  1  0  0  0  0
 16 75  1  0  0  0  0
 16 76  1  0  0  0  0
 17 18  1  0  0  0  0
 17 77  1  0  0  0  0
 18 19  1  0  0  0  0
 18 21  1  0  0  0  0
 18 78  1  6  0  0  0
 19 20  2  0  0  0  0
 19 24  1  0  0  0  0
 21 22  1  0  0  0  0
 21 23  1  0  0  0  0
 21 79  1  1  0  0  0
 22 80  1  0  0  0  0
 23 81  1  0  0  0  0
 23 82  1  0  0  0  0
 23 83  1  0  0  0  0
 24 25  1  0  0  0  0
 24 84  1  0  0  0  0
 25 26  1  0  0  0  0
 25 31  1  0  0  0  0
 25 85  1  1  0  0  0
 26 27  1  0  0  0  0
 26 86  1  0  0  0  0
 26 87  1  0  0  0  0
 27 28  1  0  0  0  0
 27 88  1  0  0  0  0
 27 89  1  0  0  0  0
 28 29  1  0  0  0  0
 28 90  1  0  0  0  0
 28 91  1  0  0  0  0
 29 30  1  0  0  0  0
 29 92  1  0  0  0  0
 29 93  1  0  0  0  0
 30 33  1  0  0  0  0
 30 34  1  0  0  0  0
 30 35  1  0  0  0  0
 31 32  2  0  0  0  0
 31 36  1  0  0  0  0
 33 94  1  0  0  0  0
 33 95  1  0  0  0  0
 33 96  1  0  0  0  0
 34 97  1  0  0  0  0
 34 98  1  0  0  0  0
 34 99  1  0  0  0  0
 35100  1  0  0  0  0
 35101  1  0  0  0  0
 35102  1  0  0  0  0
 36 37  1  0  0  0  0
 36103  1  0  0  0  0
 37 38  1  0  0  0  0
 37 40  1  0  0  0  0
 37104  1  6  0  0  0
 38 39  2  0  0  0  0
 38 45  1  0  0  0  0
 40 41  1  0  0  0  0
 40105  1  0  0  0  0
 40106  1  0  0  0  0
 41 42  1  0  0  0  0
 41107  1  0  0  0  0
 41108  1  0  0  0  0
 42 43  2  0  0  0  0
 42 44  1  0  0  0  0
 44109  1  0  0  0  0
 44110  1  0  0  0  0
 45 46  1  0  0  0  0
 45111  1  0  0  0  0
 46 47  1  0  0  0  0
 46 49  1  0  0  0  0
 46112  1  1  0  0  0
 47 48  2  0  0  0  0
 47 52  1  0  0  0  0
 49 50  1  0  0  0  0
 49 51  1  0  0  0  0
 49113  1  6  0  0  0
 50114  1  0  0  0  0
 51115  1  0  0  0  0
 51116  1  0  0  0  0
 51117  1  0  0  0  0
 52 53  1  0  0  0  0
 52118  1  0  0  0  0
 53 54  1  0  0  0  0
 53 56  1  0  0  0  0
 53119  1  1  0  0  0
 54 55  1  0  0  0  0
 54120  2  0  0  0  0
 56121  1  0  0  0  0
 56122  1  0  0  0  0
 56123  1  0  0  0  0
M  CHG  3   1   1  30   1  55  -1
M  END
