4mzs_ligand
 OpenBabel08222323353D

 52 54  0  0  1  0  0  0  0  0999 V2000
   -4.8730    0.2590  -17.8520 S   0  0  0  0  0  0  0  0  0  0  0  0
   -5.1340   -1.2910  -18.3990 N   0  0  0  0  0  0  0  0  0  0  0  0
   -5.8420   -3.4870  -17.6620 C   0  0  2  0  0  0  0  0  0  0  0  0
   -7.0420   -2.5790  -18.0460 C   0  0  1  0  0  0  0  0  0  0  0  0
   -6.0270   -4.2470  -16.3610 C   0  0  0  0  0  0  0  0  0  0  0  0
   -3.1040    0.4550  -17.8410 C   0  0  0  0  0  0  0  0  0  0  0  0
   -4.6730   -2.4700  -17.6290 C   0  0  0  0  0  0  0  0  0  0  0  0
   -6.3670   -1.6920  -19.0930 C   0  0  0  0  0  0  0  0  0  0  0  0
   -5.2810   -5.3610  -16.0670 N   0  0  0  0  0  0  0  0  0  0  0  0
   -8.2030   -3.3510  -18.6290 C   0  0  0  0  0  0  0  0  0  0  0  0
  -12.4370   -3.3280  -20.1730 N   0  0  0  0  0  0  0  0  0  0  0  0
   -5.4450    1.1430  -18.8090 O   0  0  0  0  0  0  0  0  0  0  0  0
   -5.3000    0.2270  -16.5040 O   0  0  0  0  0  0  0  0  0  0  0  0
  -11.2330   -2.9850  -19.8550 C   0  0  0  0  0  0  0  0  0  0  0  0
   -2.3180    0.5830  -18.9980 C   0  0  0  0  0  0  0  0  0  0  0  0
   -6.9020   -3.8840  -15.5890 O   0  0  0  0  0  0  0  0  0  0  0  0
   -8.0300   -4.2340  -19.4650 O   0  0  0  0  0  0  0  0  0  0  0  0
   -9.4420   -2.9830  -18.2230 N   0  0  0  0  0  0  0  0  0  0  0  0
   -4.4660   -7.9760  -15.8110 O   0  0  0  0  0  0  0  0  0  0  0  0
   -2.9890    0.5580  -20.5820 Cl  0  0  0  0  0  0  0  0  0  0  0  0
   -2.4480    0.4190  -16.6230 C   0  0  0  0  0  0  0  0  0  0  0  0
   -4.1870   -5.8670  -16.9400 C   0  0  0  0  0  0  0  0  0  0  0  0
   -5.4890   -6.0650  -14.7760 C   0  0  0  0  0  0  0  0  0  0  0  0
  -10.6470   -3.6630  -18.6930 C   0  0  0  0  0  0  0  0  0  0  0  0
   -5.6020   -7.5720  -15.0410 C   0  0  0  0  0  0  0  0  0  0  0  0
   -4.3110   -7.3910  -17.1090 C   0  0  0  0  0  0  0  0  0  0  0  0
   -0.9350    0.7050  -18.9340 C   0  0  0  0  0  0  0  0  0  0  0  0
   -1.0680    0.5620  -16.5640 C   0  0  0  0  0  0  0  0  0  0  0  0
   -0.3020    0.6910  -17.7060 C   0  0  0  0  0  0  0  0  0  0  0  0
   -5.6689   -4.2290  -18.4553 H   0  0  0  0  0  0  0  0  0  0  0  0
   -7.3957   -1.9940  -17.1842 H   0  0  0  0  0  0  0  0  0  0  0  0
   -4.4451   -2.1835  -16.5917 H   0  0  0  0  0  0  0  0  0  0  0  0
   -3.7761   -2.9038  -18.0951 H   0  0  0  0  0  0  0  0  0  0  0  0
   -6.1445   -2.2551  -20.0113 H   0  0  0  0  0  0  0  0  0  0  0  0
   -6.9895   -0.8193  -19.3397 H   0  0  0  0  0  0  0  0  0  0  0  0
  -12.8922   -2.8965  -20.9621 H   0  0  0  0  0  0  0  0  0  0  0  0
  -10.6825   -2.2333  -20.4188 H   0  0  0  0  0  0  0  0  0  0  0  0
   -9.5349   -2.2218  -17.5812 H   0  0  0  0  0  0  0  0  0  0  0  0
   -3.0147    0.2784  -15.7097 H   0  0  0  0  0  0  0  0  0  0  0  0
   -3.2157   -5.6292  -16.4817 H   0  0  0  0  0  0  0  0  0  0  0  0
   -4.2551   -5.3844  -17.9261 H   0  0  0  0  0  0  0  0  0  0  0  0
   -6.4142   -5.7033  -14.3036 H   0  0  0  0  0  0  0  0  0  0  0  0
   -4.6364   -5.8709  -14.1086 H   0  0  0  0  0  0  0  0  0  0  0  0
  -10.3877   -4.6941  -18.9749 H   0  0  0  0  0  0  0  0  0  0  0  0
  -11.3871   -3.6804  -17.8794 H   0  0  0  0  0  0  0  0  0  0  0  0
   -5.6181   -8.1179  -14.0862 H   0  0  0  0  0  0  0  0  0  0  0  0
   -6.5254   -7.7837  -15.6001 H   0  0  0  0  0  0  0  0  0  0  0  0
   -5.1878   -7.6262  -17.7302 H   0  0  0  0  0  0  0  0  0  0  0  0
   -3.4042   -7.7869  -17.5896 H   0  0  0  0  0  0  0  0  0  0  0  0
   -0.3553    0.8107  -19.8439 H   0  0  0  0  0  0  0  0  0  0  0  0
   -0.5792    0.5727  -15.5965 H   0  0  0  0  0  0  0  0  0  0  0  0
    0.7764    0.7797  -17.6400 H   0  0  0  0  0  0  0  0  0  0  0  0
  1  6  1  0  0  0  0
  1 12  2  0  0  0  0
  1 13  2  0  0  0  0
  2  1  1  0  0  0  0
  2  8  1  0  0  0  0
  3  4  1  0  0  0  0
  3  7  1  0  0  0  0
  3 30  1  6  0  0  0
  4  8  1  0  0  0  0
  4 10  1  0  0  0  0
  4 31  1  1  0  0  0
  5  3  1  0  0  0  0
  5 16  2  0  0  0  0
  6 15  2  0  0  0  0
  6 21  1  0  0  0  0
  7  2  1  0  0  0  0
  7 32  1  0  0  0  0
  7 33  1  0  0  0  0
  8 34  1  0  0  0  0
  8 35  1  0  0  0  0
  9  5  1  0  0  0  0
  9 23  1  0  0  0  0
 10 17  2  0  0  0  0
 10 18  1  0  0  0  0
 11 36  1  0  0  0  0
 14 11  2  0  0  0  0
 14 37  1  0  0  0  0
 15 20  1  0  0  0  0
 15 27  1  0  0  0  0
 18 24  1  0  0  0  0
 18 38  1  0  0  0  0
 19 25  1  0  0  0  0
 21 28  2  0  0  0  0
 21 39  1  0  0  0  0
 22  9  1  0  0  0  0
 22 26  1  0  0  0  0
 22 40  1  0  0  0  0
 22 41  1  0  0  0  0
 23 25  1  0  0  0  0
 23 42  1  0  0  0  0
 23 43  1  0  0  0  0
 24 14  1  0  0  0  0
 24 44  1  0  0  0  0
 24 45  1  0  0  0  0
 25 46  1  0  0  0  0
 25 47  1  0  0  0  0
 26 19  1  0  0  0  0
 26 48  1  0  0  0  0
 26 49  1  0  0  0  0
 27 29  2  0  0  0  0
 27 50  1  0  0  0  0
 28 29  1  0  0  0  0
 28 51  1  0  0  0  0
 29 52  1  0  0  0  0
M  END
