4n1z_ligand
 OpenBabel08222323353D

 47 47  0  0  0  0  0  0  0  0999 V2000
   24.2110   19.9300    3.7370 C   0  0  0  0  0  0  0  0  0  0  0  0
   33.0840   16.1030   10.2860 O   0  0  0  0  0  1  0  0  0  0  0  0
   35.8500   14.3920    6.3310 O   0  0  0  0  0  1  0  0  0  0  0  0
   34.9570   17.6990    7.2840 O   0  0  0  0  0  0  0  0  0  0  0  0
   35.3440   16.4880   10.4230 O   0  0  0  0  0  1  0  0  0  0  0  0
   33.6740   18.3110    9.2140 O   0  0  0  0  0  0  0  0  0  0  0  0
   36.4030   16.3990    6.4680 O   0  0  0  0  0  1  0  0  0  0  0  0
   37.2330   15.3010    8.6140 O   0  0  0  0  0  0  0  0  0  0  0  0
   32.5580   13.9990    8.4590 C   0  0  0  0  0  0  0  0  0  0  0  0
   31.3090   13.8940    8.9350 C   0  0  0  0  0  0  0  0  0  0  0  0
   31.3530   15.6260    7.6390 C   0  0  0  0  0  0  0  0  0  0  0  0
   24.4760   19.5590    5.2470 C   0  0  0  0  0  0  0  0  0  0  0  0
   25.2750   18.2740    5.3910 C   0  0  0  0  0  0  0  0  0  0  0  0
   26.6210   18.5000    6.1190 C   0  0  0  0  0  0  0  0  0  0  0  0
   27.3930   17.1720    6.1580 C   0  0  0  0  0  0  0  0  0  0  0  0
   27.9350   16.8550    7.5400 C   0  0  0  0  0  0  0  0  0  0  0  0
   28.4840   15.4440    7.5040 C   0  0  0  0  0  0  0  0  0  0  0  0
   29.2410   15.1360    8.7560 C   0  0  0  0  0  0  0  0  0  0  0  0
   33.6760   15.4710    6.9830 C   0  0  0  0  0  0  0  0  0  0  0  0
   32.5580   15.0610    7.6730 N   0  0  0  0  0  0  0  0  0  0  0  0
   30.6010   14.8810    8.4340 N   0  0  0  0  0  4  0  0  0  0  0  0
   34.6640   16.2960    7.8440 C   0  0  0  0  0  0  0  0  0  0  0  0
   34.1790   16.8140    9.5000 P   0  0  0  0  0  0  0  0  0  0  0  0
   36.1180   15.4130    7.5840 P   0  0  0  0  0  0  0  0  0  0  0  0
   23.6317   20.8637    3.6851 H   0  0  0  0  0  0  0  0  0  0  0  0
   23.6447   19.1199    3.2543 H   0  0  0  0  0  0  0  0  0  0  0  0
   25.1717   20.0653    3.2186 H   0  0  0  0  0  0  0  0  0  0  0  0
   34.1690   18.2277    7.3291 H   0  0  0  0  0  0  0  0  0  0  0  0
   33.4000   13.3433    8.6758 H   0  0  0  0  0  0  0  0  0  0  0  0
   30.9455   13.1263    9.6165 H   0  0  0  0  0  0  0  0  0  0  0  0
   31.0513   16.5096    7.0786 H   0  0  0  0  0  0  0  0  0  0  0  0
   23.5089   19.4336    5.7559 H   0  0  0  0  0  0  0  0  0  0  0  0
   25.0359   20.3791    5.7203 H   0  0  0  0  0  0  0  0  0  0  0  0
   25.4783   17.8693    4.3886 H   0  0  0  0  0  0  0  0  0  0  0  0
   24.6793   17.5492    5.9652 H   0  0  0  0  0  0  0  0  0  0  0  0
   26.4322   18.8479    7.1453 H   0  0  0  0  0  0  0  0  0  0  0  0
   27.2112   19.2548    5.5787 H   0  0  0  0  0  0  0  0  0  0  0  0
   28.2360   17.2332    5.4540 H   0  0  0  0  0  0  0  0  0  0  0  0
   26.7162   16.3614    5.8501 H   0  0  0  0  0  0  0  0  0  0  0  0
   27.1282   16.9246    8.2844 H   0  0  0  0  0  0  0  0  0  0  0  0
   28.7360   17.5626    7.8002 H   0  0  0  0  0  0  0  0  0  0  0  0
   29.1580   15.3413    6.6408 H   0  0  0  0  0  0  0  0  0  0  0  0
   27.6492   14.7348    7.4038 H   0  0  0  0  0  0  0  0  0  0  0  0
   28.8057   14.2489    9.2393 H   0  0  0  0  0  0  0  0  0  0  0  0
   29.1808   15.9939    9.4418 H   0  0  0  0  0  0  0  0  0  0  0  0
   33.3533   16.0905    6.1333 H   0  0  0  0  0  0  0  0  0  0  0  0
   34.2007   14.5796    6.6086 H   0  0  0  0  0  0  0  0  0  0  0  0
  1 25  1  0  0  0  0
  1 26  1  0  0  0  0
  1 27  1  0  0  0  0
  4 28  1  0  0  0  0
  9 10  2  0  0  0  0
  9 29  1  0  0  0  0
 10 30  1  0  0  0  0
 11 21  2  0  0  0  0
 11 31  1  0  0  0  0
 12  1  1  0  0  0  0
 12 32  1  0  0  0  0
 12 33  1  0  0  0  0
 13 12  1  0  0  0  0
 13 34  1  0  0  0  0
 13 35  1  0  0  0  0
 14 13  1  0  0  0  0
 14 36  1  0  0  0  0
 14 37  1  0  0  0  0
 15 14  1  0  0  0  0
 15 38  1  0  0  0  0
 15 39  1  0  0  0  0
 16 15  1  0  0  0  0
 16 40  1  0  0  0  0
 16 41  1  0  0  0  0
 17 16  1  0  0  0  0
 17 42  1  0  0  0  0
 17 43  1  0  0  0  0
 18 17  1  0  0  0  0
 18 44  1  0  0  0  0
 18 45  1  0  0  0  0
 19 20  1  0  0  0  0
 19 46  1  0  0  0  0
 19 47  1  0  0  0  0
 20  9  1  0  0  0  0
 20 11  1  0  0  0  0
 21 10  1  0  0  0  0
 21 18  1  0  0  0  0
 22  4  1  0  0  0  0
 22 19  1  0  0  0  0
 22 23  1  0  0  0  0
 22 24  1  0  0  0  0
 23  2  1  0  0  0  0
 23  5  1  0  0  0  0
 23  6  2  0  0  0  0
 24  3  1  0  0  0  0
 24  7  1  0  0  0  0
 24  8  2  0  0  0  0
M  END
