4n3w_ligand
 OpenBabel08222323353D

110110  0  0  1  0  0  0  0  0999 V2000
   22.5820   23.6250    5.9630 N   0  3  0  0  0  0  0  0  0  0  0  0
   22.5600   22.3120    6.6940 C   0  0  2  0  0  0  0  0  0  0  0  0
   23.9380   21.9240    7.2050 C   0  0  0  0  0  0  0  0  0  0  0  0
   24.9130   21.9130    6.4760 O   0  0  0  0  0  0  0  0  0  0  0  0
   22.0500   21.1730    5.8280 C   0  0  0  0  0  0  0  0  0  0  0  0
   21.6520   19.9820    6.6940 C   0  0  0  0  0  0  0  0  0  0  0  0
   22.0350   18.6440    6.1010 C   0  0  0  0  0  0  0  0  0  0  0  0
   21.1110   17.5950    6.5330 N   0  0  0  0  0  0  0  0  0  0  0  0
   20.9590   16.4260    5.9150 C   0  0  0  0  0  3  0  0  0  0  0  0
   21.6870   16.1260    4.8360 N   0  0  0  0  0  0  0  0  0  0  0  0
   20.0790   15.5430    6.3770 N   0  0  0  0  0  0  0  0  0  0  0  0
   24.0250   21.5890    8.4710 N   0  0  0  0  0  0  0  0  0  0  0  0
   25.3380   21.4310    9.0800 C   0  0  2  0  0  0  0  0  0  0  0  0
   25.9780   20.0950    8.7740 C   0  0  0  0  0  0  0  0  0  0  0  0
   25.3280   19.2200    8.2210 O   0  0  0  0  0  0  0  0  0  0  0  0
   25.2330   21.7560   10.5550 C   0  0  0  0  0  0  0  0  0  0  0  0
   25.0060   23.2120   10.7710 C   0  0  0  0  0  0  0  0  0  0  0  0
   23.7910   23.8110   10.5170 N   0  0  0  0  0  0  0  0  0  0  0  0
   25.8650   24.2090   11.0960 C   0  0  0  0  0  0  0  0  0  0  0  0
   23.8980   25.1090   10.7190 C   0  0  0  0  0  0  0  0  0  0  0  0
   25.1430   25.3760   11.0820 N   0  0  0  0  0  0  0  0  0  0  0  0
   27.2630   19.9810    9.0940 N   0  0  0  0  0  0  0  0  0  0  0  0
   28.0310   18.7620    8.8510 C   0  0  2  0  0  0  0  0  0  0  0  0
   28.8680   18.5420   10.0740 C   0  0  0  0  0  0  0  0  0  0  0  0
   29.2490   19.5150   10.7300 O   0  0  0  0  0  0  0  0  0  0  0  0
   28.9580   18.9240    7.6490 C   0  0  0  0  0  0  0  0  0  0  0  0
   30.2960   19.5480    8.0210 C   0  0  0  0  0  0  0  0  0  0  0  0
   30.9650   20.3780    6.9490 C   0  0  0  0  0  0  0  0  0  0  0  0
   31.9990   19.6570    6.2100 N   0  0  0  0  0  0  0  0  0  0  0  0
   33.1450   19.2080    6.7220 C   0  0  0  0  0  3  0  0  0  0  0  0
   33.4370   19.3590    8.0110 N   0  0  0  0  0  0  0  0  0  0  0  0
   34.0050   18.5780    5.9330 N   0  0  0  0  0  0  0  0  0  0  0  0
   25.8570   11.0920   12.5620 O   0  0  0  0  0  0  0  0  0  0  0  0
   26.7430   10.8800   13.3710 C   0  0  0  0  0  0  0  0  0  0  0  0
   27.0280    9.5360   13.9290 C   0  0  0  0  0  0  0  0  0  0  0  0
   27.5320   11.8400   13.7990 N   0  0  0  0  0  0  0  0  0  0  0  0
   27.3970   13.2470   13.4110 C   0  0  0  0  0  0  0  0  0  0  0  0
   28.7650   13.7430   12.9500 C   0  0  0  0  0  0  0  0  0  0  0  0
   28.7490   15.1320   12.3510 C   0  0  0  0  0  0  0  0  0  0  0  0
   30.1360   15.5210   11.7770 C   0  0  0  0  0  0  0  0  0  0  0  0
   30.0500   17.0240   11.5180 C   0  0  2  0  0  0  0  0  0  0  0  0
   29.2640   17.2970   10.3180 N   0  0  0  0  0  0  0  0  0  0  0  0
   31.4310   17.6240   11.4050 C   0  0  0  0  0  0  0  0  0  0  0  0
   32.1810   17.3230   10.5070 O   0  0  0  0  0  0  0  0  0  0  0  0
   31.7680   18.4400   12.3820 N   0  0  0  0  0  0  0  0  0  0  0  0
   32.8660   19.3630   12.2770 C   0  0  2  0  0  0  0  0  0  0  0  0
   33.9790   18.7810   13.1040 C   0  0  0  0  0  0  0  0  0  0  0  0
   33.7260   18.3990   14.2390 O   0  5  0  0  0  0  0  0  0  0  0  0
   32.4520   20.7410   12.8500 C   0  0  0  0  0  0  0  0  0  0  0  0
   33.4220   21.8100   12.4040 C   0  0  0  0  0  0  0  0  0  0  0  0
   31.0210   21.1120   12.4390 C   0  0  0  0  0  0  0  0  0  0  0  0
   21.6527   23.8460    5.6412 H   0  0  0  0  0  0  0  0  0  0  0  0
   23.2044   23.5593    5.1728 H   0  0  0  0  0  0  0  0  0  0  0  0
   22.9036   24.3504    6.5847 H   0  0  0  0  0  0  0  0  0  0  0  0
   21.8855   22.4223    7.5559 H   0  0  0  0  0  0  0  0  0  0  0  0
   22.8431   20.8649    5.1308 H   0  0  0  0  0  0  0  0  0  0  0  0
   21.1736   21.5155    5.2583 H   0  0  0  0  0  0  0  0  0  0  0  0
   20.5608   20.0015    6.8310 H   0  0  0  0  0  0  0  0  0  0  0  0
   22.1462   20.0828    7.6715 H   0  0  0  0  0  0  0  0  0  0  0  0
   23.0526   18.3838    6.4277 H   0  0  0  0  0  0  0  0  0  0  0  0
   22.0094   18.7163    5.0037 H   0  0  0  0  0  0  0  0  0  0  0  0
   20.5399   17.7731    7.3715 H   0  0  0  0  0  0  0  0  0  0  0  0
   21.5609   15.2183    4.3658 H   0  0  0  0  0  0  0  0  0  0  0  0
   22.3744   16.8024    4.4742 H   0  0  0  0  0  0  0  0  0  0  0  0
   19.5135   15.7662    7.2085 H   0  0  0  0  0  0  0  0  0  0  0  0
   19.9627   14.6357    5.9035 H   0  0  0  0  0  0  0  0  0  0  0  0
   23.1969   21.4436    9.0124 H   0  0  0  0  0  0  0  0  0  0  0  0
   25.9956   22.1910    8.6329 H   0  0  0  0  0  0  0  0  0  0  0  0
   26.1672   21.4606   11.0549 H   0  0  0  0  0  0  0  0  0  0  0  0
   24.3921   21.1938   10.9873 H   0  0  0  0  0  0  0  0  0  0  0  0
   26.9246   24.1041   11.3244 H   0  0  0  0  0  0  0  0  0  0  0  0
   23.0975   25.8387   10.6064 H   0  0  0  0  0  0  0  0  0  0  0  0
   25.5105   26.3093   11.3162 H   0  0  0  0  0  0  0  0  0  0  0  0
   27.7228   20.7611    9.5183 H   0  0  0  0  0  0  0  0  0  0  0  0
   27.3526   17.9122    8.6852 H   0  0  0  0  0  0  0  0  0  0  0  0
   28.4633   19.5678    6.9069 H   0  0  0  0  0  0  0  0  0  0  0  0
   29.1418   17.9324    7.2097 H   0  0  0  0  0  0  0  0  0  0  0  0
   30.9830   18.7328    8.2922 H   0  0  0  0  0  0  0  0  0  0  0  0
   30.1330   20.1961    8.8947 H   0  0  0  0  0  0  0  0  0  0  0  0
   31.4264   21.2553    7.4259 H   0  0  0  0  0  0  0  0  0  0  0  0
   30.1960   20.7102    6.2361 H   0  0  0  0  0  0  0  0  0  0  0  0
   31.8281   19.4809    5.2097 H   0  0  0  0  0  0  0  0  0  0  0  0
   34.3295   19.0030    8.3820 H   0  0  0  0  0  0  0  0  0  0  0  0
   32.7706   19.8319    8.6380 H   0  0  0  0  0  0  0  0  0  0  0  0
   33.7912   18.4543    4.9331 H   0  0  0  0  0  0  0  0  0  0  0  0
   34.8867   18.2125    6.3202 H   0  0  0  0  0  0  0  0  0  0  0  0
   27.8693    9.6028   14.6346 H   0  0  0  0  0  0  0  0  0  0  0  0
   27.2887    8.8474   13.1118 H   0  0  0  0  0  0  0  0  0  0  0  0
   26.1375    9.1608   14.4546 H   0  0  0  0  0  0  0  0  0  0  0  0
   28.2699   11.5955   14.4281 H   0  0  0  0  0  0  0  0  0  0  0  0
   27.0556   13.8405   14.2719 H   0  0  0  0  0  0  0  0  0  0  0  0
   26.6704   13.3398   12.5904 H   0  0  0  0  0  0  0  0  0  0  0  0
   29.1482   13.0443   12.1917 H   0  0  0  0  0  0  0  0  0  0  0  0
   29.4407   13.7490   13.8179 H   0  0  0  0  0  0  0  0  0  0  0  0
   28.4703   15.8546   13.1321 H   0  0  0  0  0  0  0  0  0  0  0  0
   28.0057   15.1630   11.5407 H   0  0  0  0  0  0  0  0  0  0  0  0
   30.3329   14.9782   10.8408 H   0  0  0  0  0  0  0  0  0  0  0  0
   30.9312   15.2990   12.5039 H   0  0  0  0  0  0  0  0  0  0  0  0
   29.5419   17.4917   12.3742 H   0  0  0  0  0  0  0  0  0  0  0  0
   29.0269   16.5572    9.6883 H   0  0  0  0  0  0  0  0  0  0  0  0
   31.2395   18.4170   13.2306 H   0  0  0  0  0  0  0  0  0  0  0  0
   33.1797   19.4735   11.2285 H   0  0  0  0  0  0  0  0  0  0  0  0
   35.1463   18.6886   12.6388 O   0  0  0  0  0  0  0  0  0  0  0  0
   32.4870   20.6791   13.9477 H   0  0  0  0  0  0  0  0  0  0  0  0
   33.1139   22.7810   12.8191 H   0  0  0  0  0  0  0  0  0  0  0  0
   33.4266   21.8657   11.3054 H   0  0  0  0  0  0  0  0  0  0  0  0
   34.4317   21.5617   12.7628 H   0  0  0  0  0  0  0  0  0  0  0  0
   30.3284   20.3244   12.7708 H   0  0  0  0  0  0  0  0  0  0  0  0
   30.9675   21.2101   11.3447 H   0  0  0  0  0  0  0  0  0  0  0  0
   30.7411   22.0673   12.9069 H   0  0  0  0  0  0  0  0  0  0  0  0
  1 52  1  0  0  0  0
  1 53  1  0  0  0  0
  1 54  1  0  0  0  0
  2  1  1  0  0  0  0
  2  5  1  0  0  0  0
  2 55  1  1  0  0  0
  3  2  1  0  0  0  0
  3  4  2  0  0  0  0
  5  6  1  0  0  0  0
  5 56  1  0  0  0  0
  5 57  1  0  0  0  0
  6  7  1  0  0  0  0
  6 58  1  0  0  0  0
  6 59  1  0  0  0  0
  7  8  1  0  0  0  0
  7 60  1  0  0  0  0
  7 61  1  0  0  0  0
  8  9  1  0  0  0  0
  8 62  1  0  0  0  0
  9 10  1  0  0  0  0
  9 11  1  0  0  0  0
 10 63  1  0  0  0  0
 10 64  1  0  0  0  0
 11 65  1  0  0  0  0
 11 66  1  0  0  0  0
 12  3  1  0  0  0  0
 12 67  1  0  0  0  0
 13 12  1  0  0  0  0
 13 16  1  0  0  0  0
 13 68  1  6  0  0  0
 14 13  1  0  0  0  0
 14 15  2  0  0  0  0
 16 17  1  0  0  0  0
 16 69  1  0  0  0  0
 16 70  1  0  0  0  0
 17 18  1  0  0  0  0
 17 19  2  0  0  0  0
 18 20  2  0  0  0  0
 19 21  1  0  0  0  0
 19 71  1  0  0  0  0
 20 72  1  0  0  0  0
 21 20  1  0  0  0  0
 21 73  1  0  0  0  0
 22 14  1  0  0  0  0
 22 74  1  0  0  0  0
 23 22  1  0  0  0  0
 23 26  1  0  0  0  0
 23 75  1  6  0  0  0
 24 23  1  0  0  0  0
 24 25  2  0  0  0  0
 26 27  1  0  0  0  0
 26 76  1  0  0  0  0
 26 77  1  0  0  0  0
 27 28  1  0  0  0  0
 27 78  1  0  0  0  0
 27 79  1  0  0  0  0
 28 29  1  0  0  0  0
 28 80  1  0  0  0  0
 28 81  1  0  0  0  0
 29 30  1  0  0  0  0
 29 82  1  0  0  0  0
 30 31  1  0  0  0  0
 30 32  1  0  0  0  0
 31 83  1  0  0  0  0
 31 84  1  0  0  0  0
 32 85  1  0  0  0  0
 32 86  1  0  0  0  0
 34 33  2  0  0  0  0
 34 35  1  0  0  0  0
 35 87  1  0  0  0  0
 35 88  1  0  0  0  0
 35 89  1  0  0  0  0
 36 34  1  0  0  0  0
 36 90  1  0  0  0  0
 37 36  1  0  0  0  0
 37 91  1  0  0  0  0
 37 92  1  0  0  0  0
 38 37  1  0  0  0  0
 38 93  1  0  0  0  0
 38 94  1  0  0  0  0
 39 38  1  0  0  0  0
 39 95  1  0  0  0  0
 39 96  1  0  0  0  0
 40 39  1  0  0  0  0
 40 97  1  0  0  0  0
 40 98  1  0  0  0  0
 41 40  1  0  0  0  0
 41 42  1  0  0  0  0
 41 43  1  0  0  0  0
 41 99  1  1  0  0  0
 42 24  1  0  0  0  0
 42100  1  0  0  0  0
 43 44  2  0  0  0  0
 43 45  1  0  0  0  0
 45 46  1  0  0  0  0
 45101  1  0  0  0  0
 46 47  1  0  0  0  0
 46 49  1  0  0  0  0
 46102  1  6  0  0  0
 47 48  1  0  0  0  0
 47103  2  0  0  0  0
 49 50  1  0  0  0  0
 49 51  1  0  0  0  0
 49104  1  0  0  0  0
 50105  1  0  0  0  0
 50106  1  0  0  0  0
 50107  1  0  0  0  0
 51108  1  0  0  0  0
 51109  1  0  0  0  0
 51110  1  0  0  0  0
M  CHG  2   1   1  48  -1
M  END
