4n4s_ligand
 OpenBabel08222323353D

 56 60  0  0  0  0  0  0  0  0999 V2000
  -14.7550   14.4550    1.7480 C   0  0  0  0  0  0  0  0  0  0  0  0
  -14.9230   14.0570    0.2870 C   0  0  0  0  0  0  0  0  0  0  0  0
  -14.0650   12.8260   -0.0400 C   0  0  0  0  0  0  0  0  0  0  0  0
  -14.5340   15.1730   -0.5610 N   0  0  0  0  0  0  0  0  0  0  0  0
  -13.4790   15.7770   -0.5360 N   0  0  0  0  0  0  0  0  0  0  0  0
  -15.3400   15.6760   -1.4940 C   0  0  0  0  0  0  0  0  0  0  0  0
  -16.5860   15.3130   -1.8390 N   0  0  0  0  0  0  0  0  0  0  0  0
  -17.2350   15.9920   -2.8500 C   0  0  0  0  0  0  0  0  0  0  0  0
  -16.5670   17.0390   -3.4770 N   0  0  0  0  0  0  0  0  0  0  0  0
  -15.3250   17.3750   -3.0790 C   0  0  0  0  0  0  0  0  0  0  0  0
  -14.6880   18.3610   -3.7150 N   0  0  0  0  0  0  0  0  0  0  0  0
  -14.6970   16.6970   -2.0930 C   0  0  0  0  0  0  0  0  0  0  0  0
  -13.5000   16.7240   -1.4670 C   0  0  0  0  0  0  0  0  0  0  0  0
  -12.4560   17.5490   -1.6330 C   0  0  0  0  0  0  0  0  0  0  0  0
  -12.6570   18.9290   -1.6480 C   0  0  0  0  0  0  0  0  0  0  0  0
  -11.1540   17.0500   -1.7190 C   0  0  0  0  0  0  0  0  0  0  0  0
  -10.0700   17.9110   -1.8560 C   0  0  0  0  0  0  0  0  0  0  0  0
   -8.7730   17.3890   -1.9630 C   0  0  0  0  0  0  0  0  0  0  0  0
  -10.2860   19.2920   -1.8950 C   0  0  0  0  0  0  0  0  0  0  0  0
   -9.2470   20.1380   -2.0360 N   0  0  0  0  0  0  0  0  0  0  0  0
  -11.5850   19.7980   -1.7940 C   0  0  0  0  0  0  0  0  0  0  0  0
  -11.8100   21.1730   -1.8290 C   0  0  0  0  0  0  0  0  0  0  0  0
  -10.7160   22.0250   -1.9680 C   0  0  0  0  0  0  0  0  0  0  0  0
   -9.4230   21.4840   -2.0700 C   0  0  0  0  0  0  0  0  0  0  0  0
   -8.3460   22.3240   -2.2130 O   0  0  0  0  0  0  0  0  0  0  0  0
   -7.1410   21.6300   -2.5590 C   0  0  0  0  0  0  0  0  0  0  0  0
   -6.1530   22.1010   -1.6770 C   0  0  0  0  0  0  0  0  0  0  0  0
   -5.6870   23.4100   -1.7800 C   0  0  0  0  0  0  0  0  0  0  0  0
   -4.7050   23.8720   -0.9100 C   0  0  0  0  0  0  0  0  0  0  0  0
   -4.1830   23.0370    0.0710 C   0  0  0  0  0  0  0  0  0  0  0  0
   -4.6420   21.7330    0.1850 C   0  0  0  0  0  0  0  0  0  0  0  0
   -5.6200   21.2680   -0.6890 C   0  0  0  0  0  0  0  0  0  0  0  0
  -15.0481   13.6137    2.3932 H   0  0  0  0  0  0  0  0  0  0  0  0
  -15.3924   15.3243    1.9669 H   0  0  0  0  0  0  0  0  0  0  0  0
  -13.7032   14.7142    1.9388 H   0  0  0  0  0  0  0  0  0  0  0  0
  -15.9795   13.8138    0.1010 H   0  0  0  0  0  0  0  0  0  0  0  0
  -14.2002   12.5553   -1.0976 H   0  0  0  0  0  0  0  0  0  0  0  0
  -14.3743   11.9839    0.5965 H   0  0  0  0  0  0  0  0  0  0  0  0
  -13.0059   13.0571    0.1467 H   0  0  0  0  0  0  0  0  0  0  0  0
  -18.2401   15.7165   -3.1482 H   0  0  0  0  0  0  0  0  0  0  0  0
  -13.7376   18.6317   -3.4245 H   0  0  0  0  0  0  0  0  0  0  0  0
  -15.1469   18.8510   -4.4962 H   0  0  0  0  0  0  0  0  0  0  0  0
  -13.6602   19.3266   -1.5446 H   0  0  0  0  0  0  0  0  0  0  0  0
  -10.9865   15.9798   -1.6785 H   0  0  0  0  0  0  0  0  0  0  0  0
   -8.8142   16.2910   -1.9107 H   0  0  0  0  0  0  0  0  0  0  0  0
   -8.1542   17.7724   -1.1383 H   0  0  0  0  0  0  0  0  0  0  0  0
   -8.3331   17.6940   -2.9240 H   0  0  0  0  0  0  0  0  0  0  0  0
  -12.8150   21.5714   -1.7498 H   0  0  0  0  0  0  0  0  0  0  0  0
  -10.8615   23.0988   -1.9973 H   0  0  0  0  0  0  0  0  0  0  0  0
   -6.8596   21.8491   -3.5996 H   0  0  0  0  0  0  0  0  0  0  0  0
   -7.2765   20.5453   -2.4364 H   0  0  0  0  0  0  0  0  0  0  0  0
   -6.0905   24.0697   -2.5396 H   0  0  0  0  0  0  0  0  0  0  0  0
   -4.3442   24.8904   -0.9976 H   0  0  0  0  0  0  0  0  0  0  0  0
   -3.4184   23.4043    0.7459 H   0  0  0  0  0  0  0  0  0  0  0  0
   -4.2409   21.0794    0.9511 H   0  0  0  0  0  0  0  0  0  0  0  0
   -5.9730   20.2467   -0.6026 H   0  0  0  0  0  0  0  0  0  0  0  0
  1  2  1  0  0  0  0
  1 33  1  0  0  0  0
  1 34  1  0  0  0  0
  1 35  1  0  0  0  0
  2  3  1  0  0  0  0
  2  4  1  0  0  0  0
  2 36  1  0  0  0  0
  3 37  1  0  0  0  0
  3 38  1  0  0  0  0
  3 39  1  0  0  0  0
  4  5  1  0  0  0  0
  4  6  1  0  0  0  0
  5 13  2  0  0  0  0
  6  7  2  0  0  0  0
  6 12  1  0  0  0  0
  7  8  1  0  0  0  0
  8  9  2  0  0  0  0
  8 40  1  0  0  0  0
  9 10  1  0  0  0  0
 10 11  1  0  0  0  0
 10 12  2  0  0  0  0
 11 41  1  0  0  0  0
 11 42  1  0  0  0  0
 12 13  1  0  0  0  0
 13 14  1  0  0  0  0
 14 15  2  0  0  0  0
 14 16  1  0  0  0  0
 15 21  1  0  0  0  0
 15 43  1  0  0  0  0
 16 17  2  0  0  0  0
 16 44  1  0  0  0  0
 17 18  1  0  0  0  0
 17 19  1  0  0  0  0
 18 45  1  0  0  0  0
 18 46  1  0  0  0  0
 18 47  1  0  0  0  0
 19 20  2  0  0  0  0
 19 21  1  0  0  0  0
 20 24  1  0  0  0  0
 21 22  2  0  0  0  0
 22 23  1  0  0  0  0
 22 48  1  0  0  0  0
 23 24  2  0  0  0  0
 23 49  1  0  0  0  0
 24 25  1  0  0  0  0
 25 26  1  0  0  0  0
 26 27  1  0  0  0  0
 26 50  1  0  0  0  0
 26 51  1  0  0  0  0
 27 28  2  0  0  0  0
 27 32  1  0  0  0  0
 28 29  1  0  0  0  0
 28 52  1  0  0  0  0
 29 30  2  0  0  0  0
 29 53  1  0  0  0  0
 30 31  1  0  0  0  0
 30 54  1  0  0  0  0
 31 32  2  0  0  0  0
 31 55  1  0  0  0  0
 32 56  1  0  0  0  0
M  END
