4n4t_ligand
 OpenBabel08222323353D

 56 60  0  0  1  0  0  0  0  0999 V2000
   -7.2950   46.6320   28.4240 C   0  0  0  0  0  0  0  0  0  0  0  0
   -7.4840   47.2320   29.7220 C   0  0  0  0  0  0  0  0  0  0  0  0
   -6.6190   46.7990   30.8230 C   0  0  0  0  0  0  0  0  0  0  0  0
   -5.5650   45.7910   30.6860 C   0  0  0  0  0  0  0  0  0  0  0  0
   -5.3840   45.2010   29.3900 C   0  0  0  0  0  0  0  0  0  0  0  0
   -6.2560   45.6300   28.2730 C   0  0  0  0  0  0  0  0  0  0  0  0
   -6.1720   45.0680   26.9140 C   0  0  1  0  0  0  0  0  0  0  0  0
   -4.9910   45.5460   26.1540 C   0  0  0  0  0  0  0  0  0  0  0  0
   -4.2930   46.8490   26.4120 C   0  0  0  0  0  0  0  0  0  0  0  0
   -5.2800   45.4350   24.6970 C   0  0  0  0  0  0  0  0  0  0  0  0
   -3.9980   44.3890   26.6200 O   0  0  0  0  0  0  0  0  0  0  0  0
   -4.6880   43.1960   26.8960 C   0  0  0  0  0  0  0  0  0  0  0  0
   -4.0010   42.1940   27.0070 O   0  0  0  0  0  0  0  0  0  0  0  0
   -6.0190   43.5770   26.9710 N   0  0  0  0  0  0  0  0  0  0  0  0
   -8.3450   43.0950   26.7280 C   0  0  0  0  0  0  0  0  0  0  0  0
   -6.9900   42.7030   27.0710 C   0  0  0  0  0  0  0  0  0  0  0  0
   -6.5870   41.3870   27.5280 C   0  0  0  0  0  0  0  0  0  0  0  0
   -7.5430   40.3980   27.6550 C   0  0  0  0  0  0  0  0  0  0  0  0
   -8.9290   40.7310   27.3160 C   0  0  0  0  0  0  0  0  0  0  0  0
   -9.3270   42.0750   26.8590 C   0  0  0  0  0  0  0  0  0  0  0  0
   -9.8530   39.6090   27.4280 C   0  0  0  0  0  0  0  0  0  0  0  0
  -11.0320   39.7720   28.2100 C   0  0  0  0  0  0  0  0  0  0  0  0
  -11.9610   38.7200   28.4190 C   0  0  0  0  0  0  0  0  0  0  0  0
  -11.5980   37.4560   27.7780 C   0  0  0  0  0  0  0  0  0  0  0  0
  -10.4590   37.3110   27.0120 N   0  0  0  0  0  0  0  0  0  0  0  0
   -9.5630   38.3140   26.7890 C   0  0  0  0  0  0  0  0  0  0  0  0
  -13.4210   40.3200   29.8140 N   0  0  0  0  0  0  0  0  0  0  0  0
  -14.6240   40.6110   30.4240 C   0  0  0  0  0  0  0  0  0  0  0  0
  -15.7280   39.6590   30.4160 C   0  0  0  0  0  0  0  0  0  0  0  0
  -15.4830   38.3970   29.7250 C   0  0  0  0  0  0  0  0  0  0  0  0
  -14.2650   38.1390   29.1210 N   0  0  0  0  0  0  0  0  0  0  0  0
  -13.1950   39.0690   29.1340 C   0  0  0  0  0  0  0  0  0  0  0  0
  -12.2590   36.3120   27.8890 N   0  0  0  0  0  0  0  0  0  0  0  0
   -7.9135   46.9222   27.5824 H   0  0  0  0  0  0  0  0  0  0  0  0
   -8.2476   47.9852   29.8794 H   0  0  0  0  0  0  0  0  0  0  0  0
   -6.7681   47.2516   31.7967 H   0  0  0  0  0  0  0  0  0  0  0  0
   -4.9471   45.5025   31.5287 H   0  0  0  0  0  0  0  0  0  0  0  0
   -4.6182   44.4505   29.2310 H   0  0  0  0  0  0  0  0  0  0  0  0
   -7.0908   45.3330   26.3703 H   0  0  0  0  0  0  0  0  0  0  0  0
   -3.4521   46.9594   25.7115 H   0  0  0  0  0  0  0  0  0  0  0  0
   -3.9144   46.8640   27.4447 H   0  0  0  0  0  0  0  0  0  0  0  0
   -5.0008   47.6788   26.2689 H   0  0  0  0  0  0  0  0  0  0  0  0
   -5.7922   44.4824   24.4963 H   0  0  0  0  0  0  0  0  0  0  0  0
   -4.3367   45.4701   24.1323 H   0  0  0  0  0  0  0  0  0  0  0  0
   -5.9246   46.2704   24.3863 H   0  0  0  0  0  0  0  0  0  0  0  0
   -8.5913   44.0967   26.3948 H   0  0  0  0  0  0  0  0  0  0  0  0
   -5.5496   41.1822   27.7667 H   0  0  0  0  0  0  0  0  0  0  0  0
   -7.2755   39.4043   27.9956 H   0  0  0  0  0  0  0  0  0  0  0  0
  -10.3642   42.2848   26.6238 H   0  0  0  0  0  0  0  0  0  0  0  0
  -11.2273   40.7372   28.6632 H   0  0  0  0  0  0  0  0  0  0  0  0
   -8.6830   38.1662   26.1735 H   0  0  0  0  0  0  0  0  0  0  0  0
  -14.7507   41.5669   30.9192 H   0  0  0  0  0  0  0  0  0  0  0  0
  -16.6758   39.8758   30.8954 H   0  0  0  0  0  0  0  0  0  0  0  0
  -16.2675   37.6500   29.6843 H   0  0  0  0  0  0  0  0  0  0  0  0
  -11.9220   35.4726   27.3963 H   0  0  0  0  0  0  0  0  0  0  0  0
  -13.1095   36.2627   28.4679 H   0  0  0  0  0  0  0  0  0  0  0  0
  1  2  2  0  0  0  0
  1 34  1  0  0  0  0
  2  3  1  0  0  0  0
  2 35  1  0  0  0  0
  3 36  1  0  0  0  0
  4  3  2  0  0  0  0
  4 37  1  0  0  0  0
  5  4  1  0  0  0  0
  5 38  1  0  0  0  0
  6  1  1  0  0  0  0
  6  5  2  0  0  0  0
  7  6  1  0  0  0  0
  7  8  1  0  0  0  0
  7 39  1  6  0  0  0
  8  9  1  0  0  0  0
  8 10  1  0  0  0  0
  9 40  1  0  0  0  0
  9 41  1  0  0  0  0
  9 42  1  0  0  0  0
 10 43  1  0  0  0  0
 10 44  1  0  0  0  0
 10 45  1  0  0  0  0
 11  8  1  0  0  0  0
 12 11  1  0  0  0  0
 12 13  2  0  0  0  0
 14  7  1  0  0  0  0
 14 12  1  0  0  0  0
 15 16  2  0  0  0  0
 15 46  1  0  0  0  0
 16 14  1  0  0  0  0
 17 16  1  0  0  0  0
 17 47  1  0  0  0  0
 18 17  2  0  0  0  0
 18 48  1  0  0  0  0
 19 18  1  0  0  0  0
 19 20  2  0  0  0  0
 20 15  1  0  0  0  0
 20 49  1  0  0  0  0
 21 19  1  0  0  0  0
 21 26  1  0  0  0  0
 22 21  2  0  0  0  0
 22 50  1  0  0  0  0
 23 22  1  0  0  0  0
 23 24  2  0  0  0  0
 24 25  1  0  0  0  0
 24 33  1  0  0  0  0
 25 26  2  0  0  0  0
 26 51  1  0  0  0  0
 27 28  2  0  0  0  0
 27 32  1  0  0  0  0
 28 29  1  0  0  0  0
 28 52  1  0  0  0  0
 29 30  2  0  0  0  0
 29 53  1  0  0  0  0
 30 31  1  0  0  0  0
 30 54  1  0  0  0  0
 31 32  2  0  0  0  0
 32 23  1  0  0  0  0
 33 55  1  0  0  0  0
 33 56  1  0  0  0  0
M  END
