4n5g_ligand
 OpenBabel08222323353D

 51 54  0  0  0  0  0  0  0  0999 V2000
    7.5280    7.6010   24.0980 C   0  0  0  0  0  0  0  0  0  0  0  0
    6.1790    7.7970   23.4440 C   0  0  0  0  0  0  0  0  0  0  0  0
    5.6560    7.0340   22.2940 C   0  0  0  0  0  0  0  0  0  0  0  0
    4.2520    7.5720   21.9690 C   0  0  0  0  0  0  0  0  0  0  0  0
    3.9490    8.6290   22.8980 C   0  0  0  0  0  0  0  0  0  0  0  0
    5.1630    8.7930   23.8430 C   0  0  0  0  0  0  0  0  0  0  0  0
    5.3290    9.6540   24.8750 C   0  0  0  0  0  0  0  0  0  0  0  0
    4.5240   10.9170   25.1170 C   0  0  0  0  0  0  0  0  0  0  0  0
    4.0130   11.1530   26.3840 C   0  0  0  0  0  0  0  0  0  0  0  0
    3.2790   12.3020   26.6430 C   0  0  0  0  0  0  0  0  0  0  0  0
    3.0640   13.2230   25.6310 C   0  0  0  0  0  0  0  0  0  0  0  0
    3.5810   12.9960   24.3650 C   0  0  0  0  0  0  0  0  0  0  0  0
    4.3160   11.8450   24.1070 C   0  0  0  0  0  0  0  0  0  0  0  0
    2.2670   14.4770   25.9160 C   0  0  0  0  0  0  0  0  0  0  0  0
    2.7810   15.1690   27.1600 C   0  0  0  0  0  0  0  0  0  0  0  0
    0.7910   14.1730   26.0360 C   0  0  0  0  0  0  0  0  0  0  0  0
    2.7160    9.2820   22.8040 C   0  0  0  0  0  0  0  0  0  0  0  0
    1.7850    8.9160   21.8170 C   0  0  0  0  0  0  0  0  0  0  0  0
    2.0930    7.8700   20.9020 C   0  0  0  0  0  0  0  0  0  0  0  0
    3.3280    7.2070   20.9900 C   0  0  0  0  0  0  0  0  0  0  0  0
    1.4480    7.6100   20.2140 F   0  0  0  0  0  0  0  0  0  0  0  0
    6.3690    5.9130   21.5670 C   0  0  0  0  0  0  0  0  0  0  0  0
    5.7880    4.5640   21.9260 C   0  0  0  0  0  0  0  0  0  0  0  0
    5.6740    4.3850   23.4250 C   0  0  0  0  0  0  0  0  0  0  0  0
    6.6850    4.1100   24.2720 N   0  0  0  0  0  0  0  0  0  0  0  0
    6.1750    4.0350   25.5090 N   0  0  0  0  0  0  0  0  0  0  0  0
    4.8570    4.2600   25.4460 N   0  0  0  0  0  0  0  0  0  0  0  0
    4.5380    4.4790   24.1550 N   0  0  0  0  0  0  0  0  0  0  0  0
    8.0678    6.7890   23.5888 H   0  0  0  0  0  0  0  0  0  0  0  0
    7.3875    7.3400   25.1573 H   0  0  0  0  0  0  0  0  0  0  0  0
    8.1102    8.5313   24.0237 H   0  0  0  0  0  0  0  0  0  0  0  0
    6.1105    9.4187   25.5960 H   0  0  0  0  0  0  0  0  0  0  0  0
    4.1879   10.4354   27.1775 H   0  0  0  0  0  0  0  0  0  0  0  0
    2.8755   12.4780   27.6336 H   0  0  0  0  0  0  0  0  0  0  0  0
    3.4116   13.7180   23.5743 H   0  0  0  0  0  0  0  0  0  0  0  0
    4.7260   11.6727   23.1184 H   0  0  0  0  0  0  0  0  0  0  0  0
    2.4017   15.1630   25.0668 H   0  0  0  0  0  0  0  0  0  0  0  0
    2.1874   16.0761   27.3467 H   0  0  0  0  0  0  0  0  0  0  0  0
    3.8363   15.4444   27.0169 H   0  0  0  0  0  0  0  0  0  0  0  0
    2.6928   14.4895   28.0205 H   0  0  0  0  0  0  0  0  0  0  0  0
    0.4444   13.6714   25.1204 H   0  0  0  0  0  0  0  0  0  0  0  0
    0.2334   15.1111   26.1736 H   0  0  0  0  0  0  0  0  0  0  0  0
    0.6212   13.5152   26.9011 H   0  0  0  0  0  0  0  0  0  0  0  0
    2.4760   10.0783   23.4993 H   0  0  0  0  0  0  0  0  0  0  0  0
    0.8328    9.4300   21.7525 H   0  0  0  0  0  0  0  0  0  0  0  0
    3.5638    6.4092   20.2950 H   0  0  0  0  0  0  0  0  0  0  0  0
    7.4339    5.9285   21.8423 H   0  0  0  0  0  0  0  0  0  0  0  0
    6.2682    6.0688   20.4828 H   0  0  0  0  0  0  0  0  0  0  0  0
    6.4400    3.7758   21.5214 H   0  0  0  0  0  0  0  0  0  0  0  0
    4.7866    4.4767   21.4793 H   0  0  0  0  0  0  0  0  0  0  0  0
    4.2033    4.2649   26.2420 H   0  0  0  0  0  0  0  0  0  0  0  0
  1  2  1  0  0  0  0
  1 29  1  0  0  0  0
  1 30  1  0  0  0  0
  1 31  1  0  0  0  0
  2  3  2  0  0  0  0
  2  6  1  0  0  0  0
  3  4  1  0  0  0  0
  3 22  1  0  0  0  0
  4  5  2  0  0  0  0
  4 20  1  0  0  0  0
  5  6  1  0  0  0  0
  5 17  1  0  0  0  0
  6  7  2  0  0  0  0
  7  8  1  0  0  0  0
  7 32  1  0  0  0  0
  8  9  2  0  0  0  0
  8 13  1  0  0  0  0
  9 10  1  0  0  0  0
  9 33  1  0  0  0  0
 10 11  2  0  0  0  0
 10 34  1  0  0  0  0
 11 12  1  0  0  0  0
 11 14  1  0  0  0  0
 12 13  2  0  0  0  0
 12 35  1  0  0  0  0
 13 36  1  0  0  0  0
 14 15  1  0  0  0  0
 14 16  1  0  0  0  0
 14 37  1  0  0  0  0
 15 38  1  0  0  0  0
 15 39  1  0  0  0  0
 15 40  1  0  0  0  0
 16 41  1  0  0  0  0
 16 42  1  0  0  0  0
 16 43  1  0  0  0  0
 17 18  2  0  0  0  0
 17 44  1  0  0  0  0
 18 19  1  0  0  0  0
 18 45  1  0  0  0  0
 19 20  2  0  0  0  0
 19 21  1  0  0  0  0
 20 46  1  0  0  0  0
 22 23  1  0  0  0  0
 22 47  1  0  0  0  0
 22 48  1  0  0  0  0
 23 24  1  0  0  0  0
 23 49  1  0  0  0  0
 23 50  1  0  0  0  0
 24 25  1  0  0  0  0
 24 28  2  0  0  0  0
 25 26  2  0  0  0  0
 26 27  1  0  0  0  0
 27 28  1  0  0  0  0
 27 51  1  0  0  0  0
M  END
