4n7g_ligand
 OpenBabel08222323353D

158157  0  0  1  0  0  0  0  0999 V2000
   66.9870   -8.8550   20.2290 N   0  3  0  0  0  0  0  0  0  0  0  0
   67.0540   -7.5680   21.0210 C   0  0  2  0  0  0  0  0  0  0  0  0
   65.6890   -7.1600   21.6070 C   0  0  0  0  0  0  0  0  0  0  0  0
   65.5130   -7.2340   22.8420 O   0  0  0  0  0  0  0  0  0  0  0  0
   67.6100   -6.4080   20.2110 C   0  0  0  0  0  0  0  0  0  0  0  0
   67.7050   -5.1270   21.0440 C   0  0  0  0  0  0  0  0  0  0  0  0
   69.1010   -4.5130   20.9810 C   0  0  0  0  0  0  0  0  0  0  0  0
   69.8100   -4.4440   21.9920 O   0  0  0  0  0  0  0  0  0  0  0  0
   69.5130   -4.0880   19.7820 N   0  0  0  0  0  0  0  0  0  0  0  0
   64.7920   -6.6910   20.7110 N   0  0  0  0  0  0  0  0  0  0  0  0
   63.3300   -6.7840   20.8370 C   0  0  0  0  0  0  0  0  0  0  0  0
   63.0320   -8.2790   21.1090 C   0  0  0  0  0  0  0  0  0  0  0  0
   62.2450   -8.5810   21.9960 O   0  0  0  0  0  0  0  0  0  0  0  0
   63.6600   -9.1900   20.3430 N   0  0  0  0  0  0  0  0  0  0  0  0
   63.4170  -10.6240   20.4430 C   0  0  2  0  0  0  0  0  0  0  0  0
   63.9530  -11.1790   21.7850 C   0  0  0  0  0  0  0  0  0  0  0  0
   63.2180  -11.8970   22.4350 O   0  0  0  0  0  0  0  0  0  0  0  0
   63.9460  -11.4430   19.2540 C   0  0  0  0  0  0  0  0  0  0  0  0
   63.8480  -12.9720   19.3500 C   0  0  0  0  0  0  0  0  0  0  0  0
   62.3670  -13.3230   19.4460 C   0  0  0  0  0  0  0  0  0  0  0  0
   64.4560  -13.5710   18.0660 C   0  0  0  0  0  0  0  0  0  0  0  0
   65.1330  -10.7710   22.2140 N   0  0  0  0  0  0  0  0  0  0  0  0
   65.6700  -11.2450   23.4740 C   0  0  2  0  0  0  0  0  0  0  0  0
   64.7530  -10.8800   24.6200 C   0  0  0  0  0  0  0  0  0  0  0  0
   64.4860  -11.6850   25.4710 O   0  0  0  0  0  0  0  0  0  0  0  0
   67.0710  -10.7240   23.7750 C   0  0  0  0  0  0  0  0  0  0  0  0
   68.1770  -11.5020   23.0940 C   0  0  0  0  0  0  0  0  0  0  0  0
   69.5250  -10.8260   23.3310 C   0  0  0  0  0  0  0  0  0  0  0  0
   68.2070  -12.9540   23.5340 C   0  0  0  0  0  0  0  0  0  0  0  0
   64.2230   -9.6800   24.5840 N   0  0  0  0  0  0  0  0  0  0  0  0
   63.4060   -9.2090   25.6400 C   0  0  2  0  0  0  0  0  0  0  0  0
   62.0530   -9.9340   25.5650 C   0  0  0  0  0  0  0  0  0  0  0  0
   61.4530  -10.2840   26.5990 O   0  0  0  0  0  0  0  0  0  0  0  0
   63.2470   -7.6680   25.4840 C   0  0  0  0  0  0  0  0  0  0  0  0
   62.6360   -7.0040   26.7250 C   0  0  0  0  0  0  0  0  0  0  0  0
   62.7080   -7.5400   27.8550 O   0  5  0  0  0  0  0  0  0  0  0  0
   62.0810   -5.9070   26.5750 O   0  0  0  0  0  0  0  0  0  0  0  0
   61.5630  -10.1580   24.3450 N   0  0  0  0  0  0  0  0  0  0  0  0
   60.2920  -10.7550   24.1690 C   0  0  2  0  0  0  0  0  0  0  0  0
   60.3420  -12.2390   24.6570 C   0  0  0  0  0  0  0  0  0  0  0  0
   59.3000  -12.8020   24.9900 O   0  0  0  0  0  0  0  0  0  0  0  0
   59.8530  -10.7540   22.6800 C   0  0  0  0  0  0  0  0  0  0  0  0
   61.5230  -12.8570   24.6640 N   0  0  0  0  0  0  0  0  0  0  0  0
   61.6290  -14.2680   25.0050 C   0  0  2  0  0  0  0  0  0  0  0  0
   61.5080  -14.5200   26.5150 C   0  0  0  0  0  0  0  0  0  0  0  0
   61.4720  -15.6840   26.9320 O   0  0  0  0  0  0  0  0  0  0  0  0
   62.9920  -14.8290   24.5300 C   0  0  0  0  0  0  0  0  0  0  0  0
   62.8740  -15.1120   23.0000 C   0  0  0  0  0  0  0  0  0  0  0  0
   64.2330  -15.3510   22.4340 C   0  0  0  0  0  0  0  0  0  0  0  0
   62.0020  -16.3560   22.8780 C   0  0  0  0  0  0  0  0  0  0  0  0
   61.4070  -13.4690   27.3270 N   0  0  0  0  0  0  0  0  0  0  0  0
   61.0240  -13.6680   28.7900 C   0  0  2  0  0  0  0  0  0  0  0  0
   61.9890  -14.7020   29.4500 C   0  0  0  0  0  0  0  0  0  0  0  0
   61.6030  -15.6930   30.0540 O   0  0  0  0  0  0  0  0  0  0  0  0
   59.5520  -14.0830   28.8530 C   0  0  0  0  0  0  0  0  0  0  0  0
   58.9840  -14.0700   30.3160 C   0  0  0  0  0  0  0  0  0  0  0  0
   59.6900  -13.5330   31.2150 O   0  5  0  0  0  0  0  0  0  0  0  0
   57.8400  -14.5740   30.5090 O   0  0  0  0  0  0  0  0  0  0  0  0
   63.2800  -14.4640   29.2440 N   0  0  0  0  0  0  0  0  0  0  0  0
   64.2690  -15.4220   29.6140 C   0  0  2  0  0  0  0  0  0  0  0  0
   64.2720  -15.6560   31.1380 C   0  0  0  0  0  0  0  0  0  0  0  0
   64.2690  -14.6810   31.9010 O   0  0  0  0  0  0  0  0  0  0  0  0
   65.6410  -14.8950   29.1710 C   0  0  0  0  0  0  0  0  0  0  0  0
   65.7350  -14.7500   27.6290 C   0  0  0  0  0  0  0  0  0  0  0  0
   67.0700  -14.0740   27.3180 C   0  0  0  0  0  0  0  0  0  0  0  0
   65.5970  -16.1720   27.0160 C   0  0  0  0  0  0  0  0  0  0  0  0
   64.3130  -16.9210   31.5770 N   0  0  0  0  0  0  0  0  0  0  0  0
   64.4490  -17.2310   33.0520 C   0  0  2  0  0  0  0  0  0  0  0  0
   65.8700  -16.8550   33.5330 C   0  0  0  0  0  0  0  0  0  0  0  0
   66.7480  -16.4960   32.7320 O   0  0  0  0  0  0  0  0  0  0  0  0
   64.1400  -18.6880   33.3280 C   0  0  0  0  0  0  0  0  0  0  0  0
   66.1570  -16.8410   34.8090 N   0  0  0  0  0  0  0  0  0  0  0  0
   67.4880  -16.2430   35.2100 C   0  0  2  0  0  0  0  0  0  0  0  0
   68.7400  -17.0100   34.7620 C   0  0  0  0  0  0  0  0  0  0  0  0
   68.7120  -18.2290   34.7710 O   0  5  0  0  0  0  0  0  0  0  0  0
   67.5570  -15.9910   36.7210 C   0  0  0  0  0  0  0  0  0  0  0  0
   66.8500  -14.8040   37.0160 O   0  0  0  0  0  0  0  0  0  0  0  0
   67.9022   -9.0760   19.8691 H   0  0  0  0  0  0  0  0  0  0  0  0
   66.3421   -8.7445   19.4622 H   0  0  0  0  0  0  0  0  0  0  0  0
   66.6721   -9.6021   20.8279 H   0  0  0  0  0  0  0  0  0  0  0  0
   67.7392   -7.7454   21.8630 H   0  0  0  0  0  0  0  0  0  0  0  0
   66.9491   -6.2252   19.3509 H   0  0  0  0  0  0  0  0  0  0  0  0
   68.6149   -6.6741   19.8513 H   0  0  0  0  0  0  0  0  0  0  0  0
   67.4674   -5.3647   22.0914 H   0  0  0  0  0  0  0  0  0  0  0  0
   66.9773   -4.3973   20.6595 H   0  0  0  0  0  0  0  0  0  0  0  0
   70.4191   -3.6771   19.6814 H   0  0  0  0  0  0  0  0  0  0  0  0
   68.9150   -4.1810   18.9859 H   0  0  0  0  0  0  0  0  0  0  0  0
   65.1533   -6.2429   19.8933 H   0  0  0  0  0  0  0  0  0  0  0  0
   62.8425   -6.4581   19.9064 H   0  0  0  0  0  0  0  0  0  0  0  0
   62.9760   -6.1632   21.6733 H   0  0  0  0  0  0  0  0  0  0  0  0
   64.3269   -8.8671   19.6714 H   0  0  0  0  0  0  0  0  0  0  0  0
   62.3250  -10.7560   20.4503 H   0  0  0  0  0  0  0  0  0  0  0  0
   65.0081  -11.1880   19.1242 H   0  0  0  0  0  0  0  0  0  0  0  0
   63.3825  -11.1317   18.3621 H   0  0  0  0  0  0  0  0  0  0  0  0
   64.3872  -13.3432   20.2340 H   0  0  0  0  0  0  0  0  0  0  0  0
   62.2528  -14.4148   19.5168 H   0  0  0  0  0  0  0  0  0  0  0  0
   61.8446  -12.9571   18.5498 H   0  0  0  0  0  0  0  0  0  0  0  0
   61.9354  -12.8505   20.3406 H   0  0  0  0  0  0  0  0  0  0  0  0
   65.5232  -13.3105   18.0096 H   0  0  0  0  0  0  0  0  0  0  0  0
   63.9325  -13.1645   17.1881 H   0  0  0  0  0  0  0  0  0  0  0  0
   64.3462  -14.6653   18.0842 H   0  0  0  0  0  0  0  0  0  0  0  0
   65.6630  -10.1267   21.6626 H   0  0  0  0  0  0  0  0  0  0  0  0
   65.7270  -12.3419   23.4142 H   0  0  0  0  0  0  0  0  0  0  0  0
   67.2322  -10.7733   24.8620 H   0  0  0  0  0  0  0  0  0  0  0  0
   67.1295   -9.6770   23.4427 H   0  0  0  0  0  0  0  0  0  0  0  0
   67.9782  -11.4880   22.0122 H   0  0  0  0  0  0  0  0  0  0  0  0
   70.3172  -11.4023   22.8307 H   0  0  0  0  0  0  0  0  0  0  0  0
   69.7290  -10.7834   24.4111 H   0  0  0  0  0  0  0  0  0  0  0  0
   69.5003   -9.8052   22.9220 H   0  0  0  0  0  0  0  0  0  0  0  0
   67.2242  -13.4129   23.3511 H   0  0  0  0  0  0  0  0  0  0  0  0
   68.4425  -13.0072   24.6072 H   0  0  0  0  0  0  0  0  0  0  0  0
   68.9760  -13.4945   22.9626 H   0  0  0  0  0  0  0  0  0  0  0  0
   64.3992   -9.0882   23.7974 H   0  0  0  0  0  0  0  0  0  0  0  0
   63.8808   -9.4279   26.6078 H   0  0  0  0  0  0  0  0  0  0  0  0
   62.5946   -7.4676   24.6213 H   0  0  0  0  0  0  0  0  0  0  0  0
   64.2392   -7.2289   25.3033 H   0  0  0  0  0  0  0  0  0  0  0  0
   62.1016   -9.9003   23.5428 H   0  0  0  0  0  0  0  0  0  0  0  0
   59.5529  -10.1966   24.7622 H   0  0  0  0  0  0  0  0  0  0  0  0
   58.8634  -11.2256   22.5892 H   0  0  0  0  0  0  0  0  0  0  0  0
   60.5840  -11.3177   22.0818 H   0  0  0  0  0  0  0  0  0  0  0  0
   59.8005   -9.7181   22.3139 H   0  0  0  0  0  0  0  0  0  0  0  0
   62.3489  -12.3433   24.4314 H   0  0  0  0  0  0  0  0  0  0  0  0
   60.8190  -14.8079   24.4928 H   0  0  0  0  0  0  0  0  0  0  0  0
   63.2229  -15.7604   25.0676 H   0  0  0  0  0  0  0  0  0  0  0  0
   63.7870  -14.0918   24.7155 H   0  0  0  0  0  0  0  0  0  0  0  0
   62.4031  -14.2630   22.4829 H   0  0  0  0  0  0  0  0  0  0  0  0
   64.1510  -15.5506   21.3554 H   0  0  0  0  0  0  0  0  0  0  0  0
   64.6911  -16.2174   22.9334 H   0  0  0  0  0  0  0  0  0  0  0  0
   64.8592  -14.4612   22.5956 H   0  0  0  0  0  0  0  0  0  0  0  0
   61.0083  -16.1503   23.3026 H   0  0  0  0  0  0  0  0  0  0  0  0
   62.4700  -17.1870   23.4260 H   0  0  0  0  0  0  0  0  0  0  0  0
   61.8982  -16.6285   21.8174 H   0  0  0  0  0  0  0  0  0  0  0  0
   61.5824  -12.5487   26.9772 H   0  0  0  0  0  0  0  0  0  0  0  0
   61.1350  -12.7118   29.3223 H   0  0  0  0  0  0  0  0  0  0  0  0
   59.4550  -15.1005   28.4464 H   0  0  0  0  0  0  0  0  0  0  0  0
   58.9626  -13.3853   28.2400 H   0  0  0  0  0  0  0  0  0  0  0  0
   63.5617  -13.6014   28.8238 H   0  0  0  0  0  0  0  0  0  0  0  0
   64.0591  -16.3747   29.1058 H   0  0  0  0  0  0  0  0  0  0  0  0
   66.4177  -15.5962   29.5102 H   0  0  0  0  0  0  0  0  0  0  0  0
   65.8094  -13.9104   29.6316 H   0  0  0  0  0  0  0  0  0  0  0  0
   64.9165  -14.1177   27.2544 H   0  0  0  0  0  0  0  0  0  0  0  0
   67.1748  -13.9528   26.2297 H   0  0  0  0  0  0  0  0  0  0  0  0
   67.8935  -14.6961   27.6986 H   0  0  0  0  0  0  0  0  0  0  0  0
   67.1025  -13.0866   27.8017 H   0  0  0  0  0  0  0  0  0  0  0  0
   64.6156  -16.5920   27.2814 H   0  0  0  0  0  0  0  0  0  0  0  0
   66.3925  -16.8206   27.4116 H   0  0  0  0  0  0  0  0  0  0  0  0
   65.6852  -16.1096   25.9213 H   0  0  0  0  0  0  0  0  0  0  0  0
   64.2528  -17.6722   30.9197 H   0  0  0  0  0  0  0  0  0  0  0  0
   63.7228  -16.6172   33.6050 H   0  0  0  0  0  0  0  0  0  0  0  0
   64.2456  -18.8876   34.4046 H   0  0  0  0  0  0  0  0  0  0  0  0
   64.8403  -19.3241   32.7667 H   0  0  0  0  0  0  0  0  0  0  0  0
   63.1097  -18.9104   33.0132 H   0  0  0  0  0  0  0  0  0  0  0  0
   65.5243  -17.2095   35.4901 H   0  0  0  0  0  0  0  0  0  0  0  0
   67.5365  -15.2617   34.7153 H   0  0  0  0  0  0  0  0  0  0  0  0
   69.7747  -16.3930   34.3928 O   0  0  0  0  0  0  0  0  0  0  0  0
   68.6070  -15.8828   37.0305 H   0  0  0  0  0  0  0  0  0  0  0  0
   67.1016  -16.8360   37.2582 H   0  0  0  0  0  0  0  0  0  0  0  0
   66.8868  -14.6388   37.9508 H   0  0  0  0  0  0  0  0  0  0  0  0
  1  2  1  0  0  0  0
  1 78  1  0  0  0  0
  1 79  1  0  0  0  0
  1 80  1  0  0  0  0
  2  3  1  0  0  0  0
  2  5  1  0  0  0  0
  2 81  1  1  0  0  0
  3  4  2  0  0  0  0
  3 10  1  0  0  0  0
  5  6  1  0  0  0  0
  5 82  1  0  0  0  0
  5 83  1  0  0  0  0
  6  7  1  0  0  0  0
  6 84  1  0  0  0  0
  6 85  1  0  0  0  0
  7  8  2  0  0  0  0
  7  9  1  0  0  0  0
  9 86  1  0  0  0  0
  9 87  1  0  0  0  0
 10 11  1  0  0  0  0
 10 88  1  0  0  0  0
 11 12  1  0  0  0  0
 11 89  1  0  0  0  0
 11 90  1  0  0  0  0
 12 13  2  0  0  0  0
 12 14  1  0  0  0  0
 14 15  1  0  0  0  0
 14 91  1  0  0  0  0
 15 16  1  0  0  0  0
 15 18  1  0  0  0  0
 15 92  1  1  0  0  0
 16 17  2  0  0  0  0
 16 22  1  0  0  0  0
 18 19  1  0  0  0  0
 18 93  1  0  0  0  0
 18 94  1  0  0  0  0
 19 20  1  0  0  0  0
 19 21  1  0  0  0  0
 19 95  1  0  0  0  0
 20 96  1  0  0  0  0
 20 97  1  0  0  0  0
 20 98  1  0  0  0  0
 21 99  1  0  0  0  0
 21100  1  0  0  0  0
 21101  1  0  0  0  0
 22 23  1  0  0  0  0
 22102  1  0  0  0  0
 23 24  1  0  0  0  0
 23 26  1  0  0  0  0
 23103  1  6  0  0  0
 24 25  2  0  0  0  0
 24 30  1  0  0  0  0
 26 27  1  0  0  0  0
 26104  1  0  0  0  0
 26105  1  0  0  0  0
 27 28  1  0  0  0  0
 27 29  1  0  0  0  0
 27106  1  0  0  0  0
 28107  1  0  0  0  0
 28108  1  0  0  0  0
 28109  1  0  0  0  0
 29110  1  0  0  0  0
 29111  1  0  0  0  0
 29112  1  0  0  0  0
 30 31  1  0  0  0  0
 30113  1  0  0  0  0
 31 32  1  0  0  0  0
 31 34  1  0  0  0  0
 31114  1  1  0  0  0
 32 33  2  0  0  0  0
 32 38  1  0  0  0  0
 34 35  1  0  0  0  0
 34115  1  0  0  0  0
 34116  1  0  0  0  0
 35 36  1  0  0  0  0
 35 37  2  0  0  0  0
 38 39  1  0  0  0  0
 38117  1  0  0  0  0
 39 40  1  0  0  0  0
 39 42  1  0  0  0  0
 39118  1  1  0  0  0
 40 41  2  0  0  0  0
 40 43  1  0  0  0  0
 42119  1  0  0  0  0
 42120  1  0  0  0  0
 42121  1  0  0  0  0
 43 44  1  0  0  0  0
 43122  1  0  0  0  0
 44 45  1  0  0  0  0
 44 47  1  0  0  0  0
 44123  1  6  0  0  0
 45 46  2  0  0  0  0
 45 51  1  0  0  0  0
 47 48  1  0  0  0  0
 47124  1  0  0  0  0
 47125  1  0  0  0  0
 48 49  1  0  0  0  0
 48 50  1  0  0  0  0
 48126  1  0  0  0  0
 49127  1  0  0  0  0
 49128  1  0  0  0  0
 49129  1  0  0  0  0
 50130  1  0  0  0  0
 50131  1  0  0  0  0
 50132  1  0  0  0  0
 51 52  1  0  0  0  0
 51133  1  0  0  0  0
 52 53  1  0  0  0  0
 52 55  1  0  0  0  0
 52134  1  1  0  0  0
 53 54  2  0  0  0  0
 53 59  1  0  0  0  0
 55 56  1  0  0  0  0
 55135  1  0  0  0  0
 55136  1  0  0  0  0
 56 57  1  0  0  0  0
 56 58  2  0  0  0  0
 59 60  1  0  0  0  0
 59137  1  0  0  0  0
 60 61  1  0  0  0  0
 60 63  1  0  0  0  0
 60138  1  6  0  0  0
 61 62  2  0  0  0  0
 61 67  1  0  0  0  0
 63 64  1  0  0  0  0
 63139  1  0  0  0  0
 63140  1  0  0  0  0
 64 65  1  0  0  0  0
 64 66  1  0  0  0  0
 64141  1  0  0  0  0
 65142  1  0  0  0  0
 65143  1  0  0  0  0
 65144  1  0  0  0  0
 66145  1  0  0  0  0
 66146  1  0  0  0  0
 66147  1  0  0  0  0
 67 68  1  0  0  0  0
 67148  1  0  0  0  0
 68 69  1  0  0  0  0
 68 71  1  0  0  0  0
 68149  1  1  0  0  0
 69 70  2  0  0  0  0
 69 72  1  0  0  0  0
 71150  1  0  0  0  0
 71151  1  0  0  0  0
 71152  1  0  0  0  0
 72 73  1  0  0  0  0
 72153  1  0  0  0  0
 73 74  1  0  0  0  0
 73 76  1  0  0  0  0
 73154  1  6  0  0  0
 74 75  1  0  0  0  0
 74155  2  0  0  0  0
 76 77  1  0  0  0  0
 76156  1  0  0  0  0
 76157  1  0  0  0  0
 77158  1  0  0  0  0
M  CHG  4   1   1  36  -1  57  -1  75  -1
M  END
