4n7y_ligand
 OpenBabel08222323353D

173172  0  0  1  0  0  0  0  0999 V2000
   16.7380   10.7970   18.7280 N   0  3  0  0  0  0  0  0  0  0  0  0
   16.3620   10.8550   17.3250 C   0  0  2  0  0  0  0  0  0  0  0  0
   15.4370   12.0180   17.0230 C   0  0  0  0  0  0  0  0  0  0  0  0
   14.7530   12.5100   17.8980 O   0  0  0  0  0  0  0  0  0  0  0  0
   15.6890    9.5590   16.9280 C   0  0  0  0  0  0  0  0  0  0  0  0
   16.6590    8.4310   16.6700 C   0  0  0  0  0  0  0  0  0  0  0  0
   17.5310    8.6620   15.4570 C   0  0  0  0  0  0  0  0  0  0  0  0
   17.2280    9.4630   14.5850 O   0  0  0  0  0  0  0  0  0  0  0  0
   18.6290    7.9460   15.4080 N   0  0  0  0  0  0  0  0  0  0  0  0
   15.4370   12.4480   15.7060 N   0  0  0  0  0  0  0  0  0  0  0  0
   14.6780   13.5590   15.1180 C   0  0  0  0  0  0  0  0  0  0  0  0
   13.2880   13.0330   15.0280 C   0  0  0  0  0  0  0  0  0  0  0  0
   13.0310   11.8660   14.8780 O   0  0  0  0  0  0  0  0  0  0  0  0
   10.0300   12.3730   13.7570 O   0  0  0  0  0  0  0  0  0  0  0  0
   10.7980   13.2710   13.4160 C   0  0  0  0  0  0  0  0  0  0  0  0
   11.1300   14.4250   14.3620 C   0  0  2  0  0  0  0  0  0  0  0  0
   11.1280   15.7350   13.5730 C   0  0  0  0  0  0  0  0  0  0  0  0
   12.4490   14.1880   14.9650 N   0  0  0  0  0  0  0  0  0  0  0  0
   10.0540   14.5000   15.4470 C   0  0  0  0  0  0  0  0  0  0  0  0
   10.3090   13.4140   16.4940 C   0  0  0  0  0  0  0  0  0  0  0  0
   10.2950   14.0380   17.8910 C   0  0  0  0  0  0  0  0  0  0  0  0
    9.7370   13.0290   18.8960 C   0  0  0  0  0  0  0  0  0  0  0  0
   11.4920   13.4750   12.1150 N   0  0  0  0  0  0  0  0  0  0  0  0
   11.3510   12.7920   10.8210 C   0  0  2  0  0  0  0  0  0  0  0  0
   11.4590   11.2990   11.0710 C   0  0  0  0  0  0  0  0  0  0  0  0
   10.5980   10.5350   10.6030 O   0  0  0  0  0  0  0  0  0  0  0  0
   12.3880   13.2990    9.7940 C   0  0  0  0  0  0  0  0  0  0  0  0
   12.0380   14.6750    9.1540 C   0  0  0  0  0  0  0  0  0  0  0  0
   12.7000   14.8700    7.7740 C   0  0  0  0  0  0  0  0  0  0  0  0
   10.5350   14.8900    9.0090 C   0  0  0  0  0  0  0  0  0  0  0  0
   12.4710   10.9050   11.8600 N   0  0  0  0  0  0  0  0  0  0  0  0
   12.8680    9.4970   11.9960 C   0  0  2  0  0  0  0  0  0  0  0  0
   12.0580    8.7760   13.0420 C   0  0  0  0  0  0  0  0  0  0  0  0
   11.4780    7.7190   12.7620 O   0  0  0  0  0  0  0  0  0  0  0  0
   14.3820    9.3500   12.2540 C   0  0  0  0  0  0  0  0  0  0  0  0
   15.2140    9.7580   11.0460 C   0  0  0  0  0  0  0  0  0  0  0  0
   14.9520    9.2580    9.9360 O   0  5  0  0  0  0  0  0  0  0  0  0
   16.1070   10.6110   11.2000 O   0  0  0  0  0  0  0  0  0  0  0  0
    9.6780    8.2740   15.3480 C   0  0  0  0  0  0  0  0  0  0  0  0
   11.8480    8.8810   14.6720 N   0  0  0  0  0  0  0  0  0  0  0  0
    9.2440    7.1070   15.2520 O   0  0  0  0  0  0  0  0  0  0  0  0
   11.1530    8.5020   15.9350 C   0  0  1  0  0  0  0  0  0  0  0  0
   11.3660    9.7560   16.9670 C   0  0  0  0  0  0  0  0  0  0  0  0
   10.9400   10.5980   19.3440 C   0  0  0  0  0  0  0  0  0  0  0  0
   11.2510   11.9270   18.5920 C   0  0  0  0  0  0  0  0  0  0  0  0
   10.5890    9.4620   18.2860 C   0  0  0  0  0  0  0  0  0  0  0  0
   12.1030    7.2460   16.1130 C   0  0  0  0  0  0  0  0  0  0  0  0
    9.3380    9.3330   14.4790 N   0  0  0  0  0  0  0  0  0  0  0  0
    7.9180    9.3490   14.1650 C   0  0  2  0  0  0  0  0  0  0  0  0
    7.6200    8.9280   12.7070 C   0  0  0  0  0  0  0  0  0  0  0  0
    6.4570    8.9370   12.2830 O   0  0  0  0  0  0  0  0  0  0  0  0
    7.1570   10.6160   14.6150 C   0  0  0  0  0  0  0  0  0  0  0  0
    6.7820   10.7630   16.1330 C   0  0  0  0  0  0  0  0  0  0  0  0
    6.4660   12.2230   16.4940 C   0  0  0  0  0  0  0  0  0  0  0  0
    5.6160    9.8370   16.5420 C   0  0  0  0  0  0  0  0  0  0  0  0
    8.6560    8.5400   11.9390 N   0  0  0  0  0  0  0  0  0  0  0  0
    8.3970    8.0090   10.5780 C   0  0  2  0  0  0  0  0  0  0  0  0
    7.3940    8.9300    9.7910 C   0  0  0  0  0  0  0  0  0  0  0  0
    6.3680    8.4930    9.2180 O   0  0  0  0  0  0  0  0  0  0  0  0
    7.8850    6.5670   10.6830 C   0  0  0  0  0  0  0  0  0  0  0  0
    8.0000    5.7770    9.3390 C   0  0  0  0  0  0  0  0  0  0  0  0
    8.4870    6.3460    8.3250 O   0  5  0  0  0  0  0  0  0  0  0  0
    7.6230    4.5730    9.3190 O   0  0  0  0  0  0  0  0  0  0  0  0
    7.7170   10.2130    9.7800 N   0  0  0  0  0  0  0  0  0  0  0  0
    6.8060   11.2590    9.2900 C   0  0  2  0  0  0  0  0  0  0  0  0
    6.6190   11.1580    7.7820 C   0  0  0  0  0  0  0  0  0  0  0  0
    7.6150   11.0310    7.0680 O   0  0  0  0  0  0  0  0  0  0  0  0
    7.3470   12.6490    9.6830 C   0  0  0  0  0  0  0  0  0  0  0  0
    7.2080   12.8910   11.1840 C   0  0  0  0  0  0  0  0  0  0  0  0
    7.6910   14.3010   11.5220 C   0  0  0  0  0  0  0  0  0  0  0  0
    5.7770   12.6040   11.6930 C   0  0  0  0  0  0  0  0  0  0  0  0
    5.3740   11.2150    7.2780 N   0  0  0  0  0  0  0  0  0  0  0  0
    5.2030   11.1150    5.7960 C   0  0  2  0  0  0  0  0  0  0  0  0
    5.4600   12.4680    5.1160 C   0  0  0  0  0  0  0  0  0  0  0  0
    5.7880   13.4550    5.7940 O   0  0  0  0  0  0  0  0  0  0  0  0
    3.8400   10.5640    5.4010 C   0  0  0  0  0  0  0  0  0  0  0  0
    5.3050   12.4810    3.7860 N   0  0  0  0  0  0  0  0  0  0  0  0
    5.4420   13.6690    2.9060 C   0  0  2  0  0  0  0  0  0  0  0  0
    6.9040   14.0090    2.6400 C   0  0  0  0  0  0  0  0  0  0  0  0
    7.5210   13.4000    1.7710 O   0  5  0  0  0  0  0  0  0  0  0  0
    4.6490   14.8980    3.4060 C   0  0  0  0  0  0  0  0  0  0  0  0
    5.2770   16.1030    2.9770 O   0  0  0  0  0  0  0  0  0  0  0  0
   17.3506   10.0110   18.8794 H   0  0  0  0  0  0  0  0  0  0  0  0
   15.9103   10.6917   19.2936 H   0  0  0  0  0  0  0  0  0  0  0  0
   17.2138   11.6480   18.9838 H   0  0  0  0  0  0  0  0  0  0  0  0
   17.2773   10.9778   16.7274 H   0  0  0  0  0  0  0  0  0  0  0  0
   15.1080    9.7351   16.0107 H   0  0  0  0  0  0  0  0  0  0  0  0
   15.0107    9.2561   17.7393 H   0  0  0  0  0  0  0  0  0  0  0  0
   16.0857    7.5048   16.5172 H   0  0  0  0  0  0  0  0  0  0  0  0
   17.3080    8.3194   17.5511 H   0  0  0  0  0  0  0  0  0  0  0  0
   19.2560    8.0444   14.6352 H   0  0  0  0  0  0  0  0  0  0  0  0
   18.8391    7.3018   16.1434 H   0  0  0  0  0  0  0  0  0  0  0  0
   16.0264   11.9391   15.0786 H   0  0  0  0  0  0  0  0  0  0  0  0
   15.0657   13.8136   14.1206 H   0  0  0  0  0  0  0  0  0  0  0  0
   14.7193   14.4474   15.7653 H   0  0  0  0  0  0  0  0  0  0  0  0
   11.3663   16.5700   14.2482 H   0  0  0  0  0  0  0  0  0  0  0  0
   10.1341   15.8944   13.1294 H   0  0  0  0  0  0  0  0  0  0  0  0
   11.8821   15.6829   12.7739 H   0  0  0  0  0  0  0  0  0  0  0  0
   12.8343   14.9911   15.4196 H   0  0  0  0  0  0  0  0  0  0  0  0
    9.0640   14.3462   14.9929 H   0  0  0  0  0  0  0  0  0  0  0  0
   10.0870   15.4885   15.9285 H   0  0  0  0  0  0  0  0  0  0  0  0
   11.2892   12.9500   16.3097 H   0  0  0  0  0  0  0  0  0  0  0  0
    9.5223   12.6481   16.4268 H   0  0  0  0  0  0  0  0  0  0  0  0
    9.6614   14.9372   17.8844 H   0  0  0  0  0  0  0  0  0  0  0  0
   11.3200   14.3138   18.1794 H   0  0  0  0  0  0  0  0  0  0  0  0
    9.7273   13.4785   19.8999 H   0  0  0  0  0  0  0  0  0  0  0  0
   10.3705   12.1298   18.9030 H   0  0  0  0  0  0  0  0  0  0  0  0
    8.7119   12.7531   18.6079 H   0  0  0  0  0  0  0  0  0  0  0  0
   12.1747   14.2057   12.1227 H   0  0  0  0  0  0  0  0  0  0  0  0
   10.3500   13.0056   10.4181 H   0  0  0  0  0  0  0  0  0  0  0  0
   12.4668   12.5546    8.9880 H   0  0  0  0  0  0  0  0  0  0  0  0
   13.3588   13.3929   10.3026 H   0  0  0  0  0  0  0  0  0  0  0  0
   12.4263   15.4531    9.8277 H   0  0  0  0  0  0  0  0  0  0  0  0
   12.4206   15.8539    7.3691 H   0  0  0  0  0  0  0  0  0  0  0  0
   12.3579   14.0808    7.0884 H   0  0  0  0  0  0  0  0  0  0  0  0
   13.7934   14.8145    7.8807 H   0  0  0  0  0  0  0  0  0  0  0  0
   10.0492   14.7540    9.9865 H   0  0  0  0  0  0  0  0  0  0  0  0
   10.1278   14.1613    8.2926 H   0  0  0  0  0  0  0  0  0  0  0  0
   10.3440   15.9097    8.6434 H   0  0  0  0  0  0  0  0  0  0  0  0
   12.9750   11.5977   12.3760 H   0  0  0  0  0  0  0  0  0  0  0  0
   12.6559    9.0100   11.0328 H   0  0  0  0  0  0  0  0  0  0  0  0
   14.5998    8.2991   12.4954 H   0  0  0  0  0  0  0  0  0  0  0  0
   14.6595    9.9872   13.1066 H   0  0  0  0  0  0  0  0  0  0  0  0
   12.5450    9.5354   14.9651 H   0  0  0  0  0  0  0  0  0  0  0  0
   10.9814   10.6797   16.5100 H   0  0  0  0  0  0  0  0  0  0  0  0
   12.4370    9.8745   17.1880 H   0  0  0  0  0  0  0  0  0  0  0  0
   10.0838   10.7492   20.0178 H   0  0  0  0  0  0  0  0  0  0  0  0
   11.8192   10.2939   19.9309 H   0  0  0  0  0  0  0  0  0  0  0  0
   11.4938   12.7132   19.3220 H   0  0  0  0  0  0  0  0  0  0  0  0
   10.3716   12.2306   18.0051 H   0  0  0  0  0  0  0  0  0  0  0  0
   12.1071   11.7754   17.9182 H   0  0  0  0  0  0  0  0  0  0  0  0
   10.8889    8.4807   18.6823 H   0  0  0  0  0  0  0  0  0  0  0  0
    9.5072    9.4620   18.0870 H   0  0  0  0  0  0  0  0  0  0  0  0
   11.8285    6.7058   17.0311 H   0  0  0  0  0  0  0  0  0  0  0  0
   13.1475    7.5835   16.1846 H   0  0  0  0  0  0  0  0  0  0  0  0
   11.9924    6.5769   15.2470 H   0  0  0  0  0  0  0  0  0  0  0  0
    9.9965    9.9950   14.1210 H   0  0  0  0  0  0  0  0  0  0  0  0
    7.4918    8.5437   14.7813 H   0  0  0  0  0  0  0  0  0  0  0  0
    6.2179   10.6515   14.0433 H   0  0  0  0  0  0  0  0  0  0  0  0
    7.7812   11.4818   14.3490 H   0  0  0  0  0  0  0  0  0  0  0  0
    7.6632   10.4596   16.7173 H   0  0  0  0  0  0  0  0  0  0  0  0
    6.2082   12.2892   17.5613 H   0  0  0  0  0  0  0  0  0  0  0  0
    5.6171   12.5748   15.8893 H   0  0  0  0  0  0  0  0  0  0  0  0
    7.3464   12.8500   16.2899 H   0  0  0  0  0  0  0  0  0  0  0  0
    5.8617    8.7985   16.2754 H   0  0  0  0  0  0  0  0  0  0  0  0
    4.7012   10.1443   16.0142 H   0  0  0  0  0  0  0  0  0  0  0  0
    5.4545    9.9084   17.6277 H   0  0  0  0  0  0  0  0  0  0  0  0
    9.5923    8.6092   12.2833 H   0  0  0  0  0  0  0  0  0  0  0  0
    9.3478    7.9963   10.0250 H   0  0  0  0  0  0  0  0  0  0  0  0
    6.8276    6.5919   10.9852 H   0  0  0  0  0  0  0  0  0  0  0  0
    8.4732    6.0414   11.4496 H   0  0  0  0  0  0  0  0  0  0  0  0
    8.6182   10.4830   10.1190 H   0  0  0  0  0  0  0  0  0  0  0  0
    5.8256   11.1185    9.7686 H   0  0  0  0  0  0  0  0  0  0  0  0
    6.7807   13.4208    9.1412 H   0  0  0  0  0  0  0  0  0  0  0  0
    8.4098   12.7118    9.4063 H   0  0  0  0  0  0  0  0  0  0  0  0
    7.8763   12.1835   11.6966 H   0  0  0  0  0  0  0  0  0  0  0  0
    7.5902   14.4736   12.6037 H   0  0  0  0  0  0  0  0  0  0  0  0
    7.0840   15.0375   10.9750 H   0  0  0  0  0  0  0  0  0  0  0  0
    8.7464   14.4068   11.2307 H   0  0  0  0  0  0  0  0  0  0  0  0
    5.4894   11.5781   11.4194 H   0  0  0  0  0  0  0  0  0  0  0  0
    5.0750   13.3161   11.2346 H   0  0  0  0  0  0  0  0  0  0  0  0
    5.7482   12.7134   12.7872 H   0  0  0  0  0  0  0  0  0  0  0  0
    4.5821   11.3216    7.8792 H   0  0  0  0  0  0  0  0  0  0  0  0
    5.9611   10.4083    5.4275 H   0  0  0  0  0  0  0  0  0  0  0  0
    3.7692   10.5122    4.3045 H   0  0  0  0  0  0  0  0  0  0  0  0
    3.0509   11.2251    5.7885 H   0  0  0  0  0  0  0  0  0  0  0  0
    3.7150    9.5565    5.8245 H   0  0  0  0  0  0  0  0  0  0  0  0
    5.0765   11.6126    3.3459 H   0  0  0  0  0  0  0  0  0  0  0  0
    5.0017   13.3896    1.9375 H   0  0  0  0  0  0  0  0  0  0  0  0
    7.4762   14.9106    3.3088 O   0  0  0  0  0  0  0  0  0  0  0  0
    4.6098   14.8813    4.5052 H   0  0  0  0  0  0  0  0  0  0  0  0
    3.6267   14.8585    3.0020 H   0  0  0  0  0  0  0  0  0  0  0  0
    6.1596   16.1406    3.3265 H   0  0  0  0  0  0  0  0  0  0  0  0
  1 83  1  0  0  0  0
  1 84  1  0  0  0  0
  1 85  1  0  0  0  0
  2  1  1  0  0  0  0
  2  5  1  0  0  0  0
  2 86  1  6  0  0  0
  3  2  1  0  0  0  0
  3  4  2  0  0  0  0
  5  6  1  0  0  0  0
  5 87  1  0  0  0  0
  5 88  1  0  0  0  0
  6  7  1  0  0  0  0
  6 89  1  0  0  0  0
  6 90  1  0  0  0  0
  7  8  2  0  0  0  0
  7  9  1  0  0  0  0
  9 91  1  0  0  0  0
  9 92  1  0  0  0  0
 10  3  1  0  0  0  0
 10 93  1  0  0  0  0
 11 10  1  0  0  0  0
 11 94  1  0  0  0  0
 11 95  1  0  0  0  0
 12 11  1  0  0  0  0
 12 13  2  0  0  0  0
 15 14  2  0  0  0  0
 16 15  1  6  0  0  0
 16 17  1  0  0  0  0
 16 18  1  0  0  0  0
 16 19  1  0  0  0  0
 17 96  1  0  0  0  0
 17 97  1  0  0  0  0
 17 98  1  0  0  0  0
 18 12  1  0  0  0  0
 18 99  1  0  0  0  0
 19 20  1  0  0  0  0
 19100  1  0  0  0  0
 19101  1  0  0  0  0
 20 21  1  0  0  0  0
 20102  1  0  0  0  0
 20103  1  0  0  0  0
 21 22  1  0  0  0  0
 21104  1  0  0  0  0
 21105  1  0  0  0  0
 22106  1  0  0  0  0
 22107  1  0  0  0  0
 22108  1  0  0  0  0
 23 15  1  0  0  0  0
 23109  1  0  0  0  0
 24 23  1  0  0  0  0
 24 27  1  0  0  0  0
 24110  1  6  0  0  0
 25 24  1  0  0  0  0
 25 26  2  0  0  0  0
 27 28  1  0  0  0  0
 27111  1  0  0  0  0
 27112  1  0  0  0  0
 28 29  1  0  0  0  0
 28 30  1  0  0  0  0
 28113  1  0  0  0  0
 29114  1  0  0  0  0
 29115  1  0  0  0  0
 29116  1  0  0  0  0
 30117  1  0  0  0  0
 30118  1  0  0  0  0
 30119  1  0  0  0  0
 31 25  1  0  0  0  0
 31120  1  0  0  0  0
 32 31  1  0  0  0  0
 32 35  1  0  0  0  0
 32121  1  6  0  0  0
 33 32  1  0  0  0  0
 33 34  2  0  0  0  0
 35 36  1  0  0  0  0
 35122  1  0  0  0  0
 35123  1  0  0  0  0
 36 37  1  0  0  0  0
 36 38  2  0  0  0  0
 39 41  2  0  0  0  0
 39 48  1  0  0  0  0
 40 33  1  0  0  0  0
 40124  1  0  0  0  0
 42 39  1  6  0  0  0
 42 40  1  0  0  0  0
 42 47  1  0  0  0  0
 43 42  1  0  0  0  0
 43125  1  0  0  0  0
 43126  1  0  0  0  0
 44 45  1  0  0  0  0
 44 46  1  0  0  0  0
 44127  1  0  0  0  0
 44128  1  0  0  0  0
 45129  1  0  0  0  0
 45130  1  0  0  0  0
 45131  1  0  0  0  0
 46 43  1  0  0  0  0
 46132  1  0  0  0  0
 46133  1  0  0  0  0
 47134  1  0  0  0  0
 47135  1  0  0  0  0
 47136  1  0  0  0  0
 48 49  1  0  0  0  0
 48137  1  0  0  0  0
 49 50  1  0  0  0  0
 49 52  1  0  0  0  0
 49138  1  1  0  0  0
 50 51  2  0  0  0  0
 50 56  1  0  0  0  0
 52 53  1  0  0  0  0
 52139  1  0  0  0  0
 52140  1  0  0  0  0
 53 54  1  0  0  0  0
 53 55  1  0  0  0  0
 53141  1  0  0  0  0
 54142  1  0  0  0  0
 54143  1  0  0  0  0
 54144  1  0  0  0  0
 55145  1  0  0  0  0
 55146  1  0  0  0  0
 55147  1  0  0  0  0
 56 57  1  0  0  0  0
 56148  1  0  0  0  0
 57 58  1  0  0  0  0
 57 60  1  0  0  0  0
 57149  1  6  0  0  0
 58 59  2  0  0  0  0
 58 64  1  0  0  0  0
 60 61  1  0  0  0  0
 60150  1  0  0  0  0
 60151  1  0  0  0  0
 61 62  1  0  0  0  0
 61 63  2  0  0  0  0
 64 65  1  0  0  0  0
 64152  1  0  0  0  0
 65 66  1  0  0  0  0
 65 68  1  0  0  0  0
 65153  1  1  0  0  0
 66 67  2  0  0  0  0
 66 72  1  0  0  0  0
 68 69  1  0  0  0  0
 68154  1  0  0  0  0
 68155  1  0  0  0  0
 69 70  1  0  0  0  0
 69 71  1  0  0  0  0
 69156  1  0  0  0  0
 70157  1  0  0  0  0
 70158  1  0  0  0  0
 70159  1  0  0  0  0
 71160  1  0  0  0  0
 71161  1  0  0  0  0
 71162  1  0  0  0  0
 72 73  1  0  0  0  0
 72163  1  0  0  0  0
 73 74  1  0  0  0  0
 73 76  1  0  0  0  0
 73164  1  6  0  0  0
 74 75  2  0  0  0  0
 74 77  1  0  0  0  0
 76165  1  0  0  0  0
 76166  1  0  0  0  0
 76167  1  0  0  0  0
 77 78  1  0  0  0  0
 77168  1  0  0  0  0
 78 79  1  0  0  0  0
 78 81  1  0  0  0  0
 78169  1  6  0  0  0
 79 80  1  0  0  0  0
 79170  2  0  0  0  0
 81 82  1  0  0  0  0
 81171  1  0  0  0  0
 81172  1  0  0  0  0
 82173  1  0  0  0  0
M  CHG  4   1   1  37  -1  62  -1  80  -1
M  END
