4n84_ligand
 OpenBabel08222323353D

174173  0  0  1  0  0  0  0  0999 V2000
   30.2030  -12.4910   12.1580 N   0  3  0  0  0  0  0  0  0  0  0  0
   31.2370  -13.1750   13.0220 C   0  0  0  0  0  0  0  0  0  0  0  0
   31.6530  -12.2500   14.1640 C   0  0  2  0  0  0  0  0  0  0  0  0
   32.3640  -11.2140   14.0000 O   0  0  0  0  0  0  0  0  0  0  0  0
   34.0820   -9.6680   15.3150 O   0  0  0  0  0  0  0  0  0  0  0  0
   34.4250  -10.8620   15.4860 C   0  0  1  0  0  0  0  0  0  0  0  0
   33.3520  -11.8310   16.0260 C   0  0  1  0  0  0  0  0  0  0  0  0
   32.1560  -10.9660   16.5030 C   0  0  0  0  0  0  0  0  0  0  0  0
   32.9150  -12.7580   14.9940 N   0  3  0  0  0  0  0  0  0  0  0  0
   34.0210  -12.6620   17.1240 C   0  0  0  0  0  0  0  0  0  0  0  0
   34.7540  -11.7490   18.1150 C   0  0  0  0  0  0  0  0  0  0  0  0
   36.1000  -12.3020   18.6110 C   0  0  0  0  0  0  0  0  0  0  0  0
   37.1960  -12.0740   17.5670 C   0  0  0  0  0  0  0  0  0  0  0  0
   37.8070  -10.6750   17.6730 C   0  0  0  0  0  0  0  0  0  0  0  0
   38.0050  -10.2350   19.1370 C   0  0  0  0  0  0  0  0  0  0  0  0
   34.7550  -11.5730   14.1550 N   0  3  0  0  0  0  0  0  0  0  0  0
   35.9690  -11.4410   13.2930 C   0  0  2  0  0  0  0  0  0  0  0  0
   35.7440  -10.4400   12.1470 C   0  0  0  0  0  0  0  0  0  0  0  0
   36.7130   -9.9270   11.5630 O   0  0  0  0  0  0  0  0  0  0  0  0
   36.3800  -12.7980   12.7120 C   0  0  0  0  0  0  0  0  0  0  0  0
   37.0880  -13.8660   13.5800 C   0  0  0  0  0  0  0  0  0  0  0  0
   37.5820  -15.0130   12.7050 C   0  0  0  0  0  0  0  0  0  0  0  0
   38.2510  -13.3430   14.3820 C   0  0  0  0  0  0  0  0  0  0  0  0
   34.4810  -10.1710   11.8350 N   0  0  0  0  0  0  0  0  0  0  0  0
   34.1370   -9.2390   10.7670 C   0  0  2  0  0  0  0  0  0  0  0  0
   34.6110   -7.8260   11.0950 C   0  0  0  0  0  0  0  0  0  0  0  0
   35.4270   -7.2530   10.3740 O   0  0  0  0  0  0  0  0  0  0  0  0
   32.6280   -9.2420   10.5180 C   0  0  0  0  0  0  0  0  0  0  0  0
   32.1880   -8.1270    9.5900 C   0  0  0  0  0  0  0  0  0  0  0  0
   32.7860   -7.9860    8.5020 O   0  5  0  0  0  0  0  0  0  0  0  0
   31.2440   -7.3910    9.9480 O   0  0  0  0  0  0  0  0  0  0  0  0
   37.4300   -4.8260   11.9080 O   0  0  0  0  0  0  0  0  0  0  0  0
   36.9330   -5.8880   12.3520 C   0  0  0  0  0  0  0  0  0  0  0  0
   35.4370   -6.0070   12.6800 C   0  0  1  0  0  0  0  0  0  0  0  0
   34.6270   -5.0390   11.8000 C   0  0  0  0  0  0  0  0  0  0  0  0
   35.0680   -7.4260   12.4400 N   0  0  0  0  0  0  0  0  0  0  0  0
   35.1570   -5.7140   14.1780 C   0  0  0  0  0  0  0  0  0  0  0  0
   36.2530   -6.4200   14.9490 C   0  0  0  0  0  0  0  0  0  0  0  0
   35.9110   -6.6260   16.4110 C   0  0  0  0  0  0  0  0  0  0  0  0
   37.2980   -7.0080   16.9890 C   0  0  0  0  0  0  0  0  0  0  0  0
   37.1790   -8.0220   18.0600 C   0  0  0  0  0  0  0  0  0  0  0  0
   38.5160   -8.7170   18.1800 C   0  0  0  0  0  0  0  0  0  0  0  0
   37.6310   -7.3150   12.0860 N   0  0  0  0  0  0  0  0  0  0  0  0
   39.1040   -7.3260   11.9890 C   0  0  2  0  0  0  0  0  0  0  0  0
   39.4650   -7.0060   10.5650 C   0  0  0  0  0  0  0  0  0  0  0  0
   40.6240   -6.8310   10.2260 O   0  0  0  0  0  0  0  0  0  0  0  0
   39.6130   -8.6850   12.3960 C   0  0  0  0  0  0  0  0  0  0  0  0
   39.9850   -8.6580   13.8740 C   0  0  0  0  0  0  0  0  0  0  0  0
   40.3430  -10.0390   14.2930 C   0  0  0  0  0  0  0  0  0  0  0  0
   41.1410   -7.7190   14.1610 C   0  0  0  0  0  0  0  0  0  0  0  0
   38.4450   -6.9250    9.7180 N   0  0  0  0  0  0  0  0  0  0  0  0
   38.6520   -6.6980    8.2740 C   0  0  2  0  0  0  0  0  0  0  0  0
   39.7540   -7.5910    7.6950 C   0  0  0  0  0  0  0  0  0  0  0  0
   40.7610   -7.1180    7.1430 O   0  0  0  0  0  0  0  0  0  0  0  0
   38.9740   -5.2150    7.9850 C   0  0  0  0  0  0  0  0  0  0  0  0
   38.5850   -4.7880    6.5360 C   0  0  0  0  0  0  0  0  0  0  0  0
   38.0590   -5.6720    5.7840 O   0  5  0  0  0  0  0  0  0  0  0  0
   38.7680   -3.5630    6.1780 O   0  0  0  0  0  0  0  0  0  0  0  0
   39.5780   -8.8880    7.8430 N   0  0  0  0  0  0  0  0  0  0  0  0
   40.6790   -9.8490    7.5310 C   0  0  2  0  0  0  0  0  0  0  0  0
   40.9580   -9.8840    6.0340 C   0  0  0  0  0  0  0  0  0  0  0  0
   40.0270   -9.8180    5.2690 O   0  0  0  0  0  0  0  0  0  0  0  0
   40.2690  -11.2370    8.0010 C   0  0  0  0  0  0  0  0  0  0  0  0
   40.1740  -11.3810    9.5450 C   0  0  0  0  0  0  0  0  0  0  0  0
   39.6530  -12.7710    9.9880 C   0  0  0  0  0  0  0  0  0  0  0  0
   41.4720  -11.0390   10.2280 C   0  0  0  0  0  0  0  0  0  0  0  0
   42.2110   -9.9060    5.6000 N   0  0  0  0  0  0  0  0  0  0  0  0
   42.4520  -10.1210    4.1460 C   0  0  2  0  0  0  0  0  0  0  0  0
   42.1850  -11.6060    3.6420 C   0  0  0  0  0  0  0  0  0  0  0  0
   41.6540  -12.4490    4.3930 O   0  0  0  0  0  0  0  0  0  0  0  0
   43.8410   -9.6010    3.7700 C   0  0  0  0  0  0  0  0  0  0  0  0
   42.5520  -11.9420    2.4000 N   0  0  0  0  0  0  0  0  0  0  0  0
   42.0770  -13.2190    1.7310 C   0  0  2  0  0  0  0  0  0  0  0  0
   40.5510  -13.3480    1.7480 C   0  0  0  0  0  0  0  0  0  0  0  0
   39.8750  -12.9720    0.7890 O   0  5  0  0  0  0  0  0  0  0  0  0
   42.6470  -14.5090    2.3500 C   0  0  0  0  0  0  0  0  0  0  0  0
   43.8910  -14.2730    2.9490 O   0  0  0  0  0  0  0  0  0  0  0  0
   29.9328  -13.1063   11.4067 H   0  0  0  0  0  0  0  0  0  0  0  0
   30.5924  -11.6438   11.7749 H   0  0  0  0  0  0  0  0  0  0  0  0
   29.3941  -12.2667   12.7160 H   0  0  0  0  0  0  0  0  0  0  0  0
   32.1185  -13.4200   12.4113 H   0  0  0  0  0  0  0  0  0  0  0  0
   30.8108  -14.0997   13.4383 H   0  0  0  0  0  0  0  0  0  0  0  0
   30.7532  -12.0540   14.7656 H   0  0  0  0  0  0  0  0  0  0  0  0
   32.5684  -10.8343   14.8465 H   0  0  0  0  0  0  0  0  0  0  0  0
   33.3083   -9.6377   14.7647 H   0  0  0  0  0  0  0  0  0  0  0  0
   35.2974  -10.8604   16.1560 H   0  0  0  0  0  0  0  0  0  0  0  0
   31.3646  -11.6203   16.8974 H   0  0  0  0  0  0  0  0  0  0  0  0
   31.7629  -10.3848   15.6559 H   0  0  0  0  0  0  0  0  0  0  0  0
   32.4923  -10.2796   17.2940 H   0  0  0  0  0  0  0  0  0  0  0  0
   33.6793  -12.9030   14.3530 H   0  0  0  0  0  0  0  0  0  0  0  0
   32.6748  -13.6326   15.4338 H   0  0  0  0  0  0  0  0  0  0  0  0
   34.7435  -13.3533   16.6657 H   0  0  0  0  0  0  0  0  0  0  0  0
   33.2530  -13.2375   17.6615 H   0  0  0  0  0  0  0  0  0  0  0  0
   34.1025  -11.5952   18.9879 H   0  0  0  0  0  0  0  0  0  0  0  0
   34.9395  -10.7837   17.6212 H   0  0  0  0  0  0  0  0  0  0  0  0
   35.9997  -13.3811   18.7995 H   0  0  0  0  0  0  0  0  0  0  0  0
   36.3785  -11.7910   19.5444 H   0  0  0  0  0  0  0  0  0  0  0  0
   36.7619  -12.1967   16.5638 H   0  0  0  0  0  0  0  0  0  0  0  0
   37.9899  -12.8204   17.7168 H   0  0  0  0  0  0  0  0  0  0  0  0
   37.1381   -9.9577   17.1750 H   0  0  0  0  0  0  0  0  0  0  0  0
   38.7844  -10.6762   17.1683 H   0  0  0  0  0  0  0  0  0  0  0  0
   38.4450   -9.2271   19.1606 H   0  0  0  0  0  0  0  0  0  0  0  0
   38.6788  -10.9412   19.6442 H   0  0  0  0  0  0  0  0  0  0  0  0
   37.0325  -10.2226   19.6509 H   0  0  0  0  0  0  0  0  0  0  0  0
   33.9884  -11.3331   13.5461 H   0  0  0  0  0  0  0  0  0  0  0  0
   34.7121  -12.5550   14.3783 H   0  0  0  0  0  0  0  0  0  0  0  0
   36.7920  -11.0681   13.9203 H   0  0  0  0  0  0  0  0  0  0  0  0
   37.0553  -12.5841   11.8704 H   0  0  0  0  0  0  0  0  0  0  0  0
   35.4592  -13.2658   12.3335 H   0  0  0  0  0  0  0  0  0  0  0  0
   36.3439  -14.2607   14.2875 H   0  0  0  0  0  0  0  0  0  0  0  0
   38.0827  -15.7642   13.3335 H   0  0  0  0  0  0  0  0  0  0  0  0
   38.2926  -14.6260   11.9598 H   0  0  0  0  0  0  0  0  0  0  0  0
   36.7272  -15.4762   12.1906 H   0  0  0  0  0  0  0  0  0  0  0  0
   37.9127  -12.5135   15.0203 H   0  0  0  0  0  0  0  0  0  0  0  0
   39.0353  -12.9840   13.6994 H   0  0  0  0  0  0  0  0  0  0  0  0
   38.6542  -14.1495   15.0120 H   0  0  0  0  0  0  0  0  0  0  0  0
   33.7471  -10.6191   12.3456 H   0  0  0  0  0  0  0  0  0  0  0  0
   34.6421   -9.5683    9.8470 H   0  0  0  0  0  0  0  0  0  0  0  0
   32.1116   -9.1224   11.4819 H   0  0  0  0  0  0  0  0  0  0  0  0
   32.3470  -10.2058   10.0685 H   0  0  0  0  0  0  0  0  0  0  0  0
   33.5578   -5.1311   12.0417 H   0  0  0  0  0  0  0  0  0  0  0  0
   34.7859   -5.2867   10.7401 H   0  0  0  0  0  0  0  0  0  0  0  0
   34.9580   -4.0072   11.9891 H   0  0  0  0  0  0  0  0  0  0  0  0
   35.1283   -8.0987   13.1774 H   0  0  0  0  0  0  0  0  0  0  0  0
   34.1712   -6.1070   14.4673 H   0  0  0  0  0  0  0  0  0  0  0  0
   35.1907   -4.6313   14.3693 H   0  0  0  0  0  0  0  0  0  0  0  0
   37.1706   -5.8167   14.8855 H   0  0  0  0  0  0  0  0  0  0  0  0
   36.4280   -7.4034   14.4882 H   0  0  0  0  0  0  0  0  0  0  0  0
   35.1805   -7.4375   16.5444 H   0  0  0  0  0  0  0  0  0  0  0  0
   35.5228   -5.7042   16.8687 H   0  0  0  0  0  0  0  0  0  0  0  0
   37.7738   -6.1063   17.4019 H   0  0  0  0  0  0  0  0  0  0  0  0
   37.9227   -7.4144   16.1800 H   0  0  0  0  0  0  0  0  0  0  0  0
   36.3984   -8.7522   17.8005 H   0  0  0  0  0  0  0  0  0  0  0  0
   36.9228   -7.5341   19.0120 H   0  0  0  0  0  0  0  0  0  0  0  0
   38.4628   -9.4802   18.9704 H   0  0  0  0  0  0  0  0  0  0  0  0
   39.2913   -7.9793   18.4343 H   0  0  0  0  0  0  0  0  0  0  0  0
   38.7668   -9.1974   17.2228 H   0  0  0  0  0  0  0  0  0  0  0  0
   37.0929   -8.1525   11.9912 H   0  0  0  0  0  0  0  0  0  0  0  0
   39.5316   -6.5639   12.6571 H   0  0  0  0  0  0  0  0  0  0  0  0
   40.5002   -8.9401   11.7978 H   0  0  0  0  0  0  0  0  0  0  0  0
   38.8285   -9.4375   12.2277 H   0  0  0  0  0  0  0  0  0  0  0  0
   39.1116   -8.3199   14.4509 H   0  0  0  0  0  0  0  0  0  0  0  0
   40.6150  -10.0399   15.3588 H   0  0  0  0  0  0  0  0  0  0  0  0
   41.1965  -10.3935   13.6965 H   0  0  0  0  0  0  0  0  0  0  0  0
   39.4824  -10.7053   14.1337 H   0  0  0  0  0  0  0  0  0  0  0  0
   40.8711   -6.6992   13.8493 H   0  0  0  0  0  0  0  0  0  0  0  0
   42.0294   -8.0498   13.6030 H   0  0  0  0  0  0  0  0  0  0  0  0
   41.3609   -7.7268   15.2388 H   0  0  0  0  0  0  0  0  0  0  0  0
   37.5129   -7.0202   10.0674 H   0  0  0  0  0  0  0  0  0  0  0  0
   37.7119   -6.9488    7.7609 H   0  0  0  0  0  0  0  0  0  0  0  0
   40.0539   -5.0559    8.1212 H   0  0  0  0  0  0  0  0  0  0  0  0
   38.4182   -4.5884    8.6981 H   0  0  0  0  0  0  0  0  0  0  0  0
   38.6976   -9.2335    8.1678 H   0  0  0  0  0  0  0  0  0  0  0  0
   41.5917   -9.5375    8.0600 H   0  0  0  0  0  0  0  0  0  0  0  0
   41.0110  -11.9601    7.6316 H   0  0  0  0  0  0  0  0  0  0  0  0
   39.2838  -11.4704    7.5710 H   0  0  0  0  0  0  0  0  0  0  0  0
   39.4320  -10.6428    9.8833 H   0  0  0  0  0  0  0  0  0  0  0  0
   39.6077  -12.8126   11.0863 H   0  0  0  0  0  0  0  0  0  0  0  0
   40.3338  -13.5524    9.6193 H   0  0  0  0  0  0  0  0  0  0  0  0
   38.6475  -12.9350    9.5731 H   0  0  0  0  0  0  0  0  0  0  0  0
   41.8132  -10.0487    9.8921 H   0  0  0  0  0  0  0  0  0  0  0  0
   42.2304  -11.7939    9.9733 H   0  0  0  0  0  0  0  0  0  0  0  0
   41.3204  -11.0245   11.3174 H   0  0  0  0  0  0  0  0  0  0  0  0
   42.9749   -9.7813    6.2332 H   0  0  0  0  0  0  0  0  0  0  0  0
   41.7242   -9.4903    3.6145 H   0  0  0  0  0  0  0  0  0  0  0  0
   44.0143   -9.7619    2.6957 H   0  0  0  0  0  0  0  0  0  0  0  0
   44.6041  -10.1413    4.3494 H   0  0  0  0  0  0  0  0  0  0  0  0
   43.9032   -8.5259    3.9944 H   0  0  0  0  0  0  0  0  0  0  0  0
   43.1607  -11.3303    1.8947 H   0  0  0  0  0  0  0  0  0  0  0  0
   42.4080  -13.1727    0.6830 H   0  0  0  0  0  0  0  0  0  0  0  0
   39.9798  -13.8448    2.7552 O   0  0  0  0  0  0  0  0  0  0  0  0
   42.7663  -15.2647    1.5596 H   0  0  0  0  0  0  0  0  0  0  0  0
   41.9465  -14.8823    3.1115 H   0  0  0  0  0  0  0  0  0  0  0  0
   43.7927  -13.6234    3.6352 H   0  0  0  0  0  0  0  0  0  0  0  0
  1 78  1  0  0  0  0
  1 79  1  0  0  0  0
  1 80  1  0  0  0  0
  2  1  1  0  0  0  0
  2 81  1  0  0  0  0
  2 82  1  0  0  0  0
  3  2  1  0  0  0  0
  3  4  1  0  0  0  0
  3 83  1  1  0  0  0
  4 84  1  0  0  0  0
  5 85  1  0  0  0  0
  6  5  1  0  0  0  0
  6  7  1  0  0  0  0
  6 86  1  1  0  0  0
  7  8  1  1  0  0  0
  7  9  1  0  0  0  0
  7 10  1  0  0  0  0
  8 87  1  0  0  0  0
  8 88  1  0  0  0  0
  8 89  1  0  0  0  0
  9  3  1  0  0  0  0
  9 90  1  0  0  0  0
  9 91  1  0  0  0  0
 10 11  1  0  0  0  0
 10 92  1  0  0  0  0
 10 93  1  0  0  0  0
 11 12  1  0  0  0  0
 11 94  1  0  0  0  0
 11 95  1  0  0  0  0
 12 13  1  0  0  0  0
 12 96  1  0  0  0  0
 12 97  1  0  0  0  0
 13 14  1  0  0  0  0
 13 98  1  0  0  0  0
 13 99  1  0  0  0  0
 14 15  1  0  0  0  0
 14100  1  0  0  0  0
 14101  1  0  0  0  0
 15102  1  0  0  0  0
 15103  1  0  0  0  0
 15104  1  0  0  0  0
 16  6  1  0  0  0  0
 16105  1  0  0  0  0
 16106  1  0  0  0  0
 17 16  1  0  0  0  0
 17 20  1  0  0  0  0
 17107  1  1  0  0  0
 18 17  1  0  0  0  0
 18 19  2  0  0  0  0
 20 21  1  0  0  0  0
 20108  1  0  0  0  0
 20109  1  0  0  0  0
 21 22  1  0  0  0  0
 21 23  1  0  0  0  0
 21110  1  0  0  0  0
 22111  1  0  0  0  0
 22112  1  0  0  0  0
 22113  1  0  0  0  0
 23114  1  0  0  0  0
 23115  1  0  0  0  0
 23116  1  0  0  0  0
 24 18  1  0  0  0  0
 24117  1  0  0  0  0
 25 24  1  0  0  0  0
 25 28  1  0  0  0  0
 25118  1  6  0  0  0
 26 25  1  0  0  0  0
 26 27  2  0  0  0  0
 28 29  1  0  0  0  0
 28119  1  0  0  0  0
 28120  1  0  0  0  0
 29 30  1  0  0  0  0
 29 31  2  0  0  0  0
 33 32  2  0  0  0  0
 33 43  1  0  0  0  0
 34 33  1  6  0  0  0
 34 35  1  0  0  0  0
 34 36  1  0  0  0  0
 34 37  1  0  0  0  0
 35121  1  0  0  0  0
 35122  1  0  0  0  0
 35123  1  0  0  0  0
 36 26  1  0  0  0  0
 36124  1  0  0  0  0
 37 38  1  0  0  0  0
 37125  1  0  0  0  0
 37126  1  0  0  0  0
 38 39  1  0  0  0  0
 38127  1  0  0  0  0
 38128  1  0  0  0  0
 39 40  1  0  0  0  0
 39129  1  0  0  0  0
 39130  1  0  0  0  0
 40 41  1  0  0  0  0
 40131  1  0  0  0  0
 40132  1  0  0  0  0
 41 42  1  0  0  0  0
 41133  1  0  0  0  0
 41134  1  0  0  0  0
 42135  1  0  0  0  0
 42136  1  0  0  0  0
 42137  1  0  0  0  0
 43 44  1  0  0  0  0
 43138  1  0  0  0  0
 44 45  1  0  0  0  0
 44 47  1  0  0  0  0
 44139  1  1  0  0  0
 45 46  2  0  0  0  0
 45 51  1  0  0  0  0
 47 48  1  0  0  0  0
 47140  1  0  0  0  0
 47141  1  0  0  0  0
 48 49  1  0  0  0  0
 48 50  1  0  0  0  0
 48142  1  0  0  0  0
 49143  1  0  0  0  0
 49144  1  0  0  0  0
 49145  1  0  0  0  0
 50146  1  0  0  0  0
 50147  1  0  0  0  0
 50148  1  0  0  0  0
 51 52  1  0  0  0  0
 51149  1  0  0  0  0
 52 53  1  0  0  0  0
 52 55  1  0  0  0  0
 52150  1  6  0  0  0
 53 54  2  0  0  0  0
 53 59  1  0  0  0  0
 55 56  1  0  0  0  0
 55151  1  0  0  0  0
 55152  1  0  0  0  0
 56 57  1  0  0  0  0
 56 58  2  0  0  0  0
 59 60  1  0  0  0  0
 59153  1  0  0  0  0
 60 61  1  0  0  0  0
 60 63  1  0  0  0  0
 60154  1  1  0  0  0
 61 62  2  0  0  0  0
 61 67  1  0  0  0  0
 63 64  1  0  0  0  0
 63155  1  0  0  0  0
 63156  1  0  0  0  0
 64 65  1  0  0  0  0
 64 66  1  0  0  0  0
 64157  1  0  0  0  0
 65158  1  0  0  0  0
 65159  1  0  0  0  0
 65160  1  0  0  0  0
 66161  1  0  0  0  0
 66162  1  0  0  0  0
 66163  1  0  0  0  0
 67 68  1  0  0  0  0
 67164  1  0  0  0  0
 68 69  1  0  0  0  0
 68 71  1  0  0  0  0
 68165  1  6  0  0  0
 69 70  2  0  0  0  0
 69 72  1  0  0  0  0
 71166  1  0  0  0  0
 71167  1  0  0  0  0
 71168  1  0  0  0  0
 72 73  1  0  0  0  0
 72169  1  0  0  0  0
 73 74  1  0  0  0  0
 73 76  1  0  0  0  0
 73170  1  6  0  0  0
 74 75  1  0  0  0  0
 74171  2  0  0  0  0
 76 77  1  0  0  0  0
 76172  1  0  0  0  0
 76173  1  0  0  0  0
 77174  1  0  0  0  0
M  CHG  6   1   1   9   1  16   1  30  -1  57  -1  75  -1
M  END
