4n8e_ligand
 OpenBabel08222323353D

 48 50  0  0  1  0  0  0  0  0999 V2000
   15.4040   29.0900   53.1470 C   0  0  0  0  0  0  0  0  0  0  0  0
   17.9860   33.7120   54.7870 C   0  0  1  0  0  0  0  0  0  0  0  0
   17.1120   31.3230   55.4230 C   0  0  0  0  0  0  0  0  0  0  0  0
   18.9140   37.4920   54.7140 C   0  0  0  0  0  0  0  0  0  0  0  0
   17.8490   28.8360   53.5930 C   0  0  0  0  0  0  0  0  0  0  0  0
   19.4740   33.2100   54.7250 C   0  0  0  0  0  0  0  0  0  0  0  0
   15.2660   27.6350   52.7430 C   0  0  0  0  0  0  0  0  0  0  0  0
   17.8050   35.6920   56.5050 C   0  0  0  0  0  0  0  0  0  0  0  0
   18.0190   37.0220   56.9040 C   0  0  0  0  0  0  0  0  0  0  0  0
   18.5870   37.9380   56.0040 C   0  0  0  0  0  0  0  0  0  0  0  0
   17.7140   27.3020   53.3820 C   0  0  0  0  0  0  0  0  0  0  0  0
   16.6200   27.0140   52.3130 C   0  0  0  0  0  0  0  0  0  0  0  0
   16.6020   29.6410   53.5410 N   0  0  0  0  0  0  0  0  0  0  0  0
   18.1350   35.2220   55.2090 C   0  0  0  0  0  0  0  0  0  0  0  0
   16.6050   31.0750   53.9500 C   0  0  2  0  0  0  0  0  0  0  0  0
   14.3490   29.7190   53.1130 O   0  0  0  0  0  0  0  0  0  0  0  0
   18.7300   36.1620   54.3510 C   0  0  0  0  0  0  0  0  0  0  0  0
   17.2250   33.5460   53.4060 C   0  0  0  0  0  0  0  0  0  0  0  0
   17.2230   32.8230   55.8530 C   0  0  0  0  0  0  0  0  0  0  0  0
   17.1030   32.0950   52.8560 C   0  0  0  0  0  0  0  0  0  0  0  0
   19.6520   38.5270   53.5200 Cl  0  0  0  0  0  0  0  0  0  0  0  0
   20.2980   33.5610   55.8950 N   0  3  0  0  0  0  0  0  0  0  0  0
   18.1089   30.8681   55.5195 H   0  0  0  0  0  0  0  0  0  0  0  0
   16.4132   30.8241   56.1106 H   0  0  0  0  0  0  0  0  0  0  0  0
   18.5229   29.2193   52.8127 H   0  0  0  0  0  0  0  0  0  0  0  0
   18.3045   28.9952   54.5815 H   0  0  0  0  0  0  0  0  0  0  0  0
   19.9449   33.6473   53.8323 H   0  0  0  0  0  0  0  0  0  0  0  0
   19.4610   32.1139   54.6331 H   0  0  0  0  0  0  0  0  0  0  0  0
   14.5619   27.5668   51.9006 H   0  0  0  0  0  0  0  0  0  0  0  0
   14.8713   27.0662   53.5978 H   0  0  0  0  0  0  0  0  0  0  0  0
   17.3707   34.9983   57.2158 H   0  0  0  0  0  0  0  0  0  0  0  0
   17.7464   37.3401   57.9038 H   0  0  0  0  0  0  0  0  0  0  0  0
   18.7686   38.9653   56.2985 H   0  0  0  0  0  0  0  0  0  0  0  0
   17.4310   26.8256   54.3323 H   0  0  0  0  0  0  0  0  0  0  0  0
   18.6763   26.8939   53.0395 H   0  0  0  0  0  0  0  0  0  0  0  0
   16.9294   27.4498   51.3516 H   0  0  0  0  0  0  0  0  0  0  0  0
   16.5004   25.9263   52.2010 H   0  0  0  0  0  0  0  0  0  0  0  0
   15.5329   31.3107   54.0211 H   0  0  0  0  0  0  0  0  0  0  0  0
   19.0579   35.8387   53.3696 H   0  0  0  0  0  0  0  0  0  0  0  0
   17.7597   34.1454   52.6545 H   0  0  0  0  0  0  0  0  0  0  0  0
   16.2070   33.9424   53.5345 H   0  0  0  0  0  0  0  0  0  0  0  0
   16.2084   33.2266   55.9856 H   0  0  0  0  0  0  0  0  0  0  0  0
   17.7663   32.8756   56.8080 H   0  0  0  0  0  0  0  0  0  0  0  0
   16.3876   32.0934   52.0204 H   0  0  0  0  0  0  0  0  0  0  0  0
   18.0899   31.7707   52.4944 H   0  0  0  0  0  0  0  0  0  0  0  0
   21.2310   33.2008   55.7691 H   0  0  0  0  0  0  0  0  0  0  0  0
   19.8917   33.1586   56.7251 H   0  0  0  0  0  0  0  0  0  0  0  0
   20.3351   34.5637   55.9912 H   0  0  0  0  0  0  0  0  0  0  0  0
  1  7  1  0  0  0  0
  1 16  2  0  0  0  0
  2  6  1  6  0  0  0
  2 14  1  0  0  0  0
  2 18  1  0  0  0  0
  3 19  1  0  0  0  0
  3 23  1  0  0  0  0
  3 24  1  0  0  0  0
  4 17  1  0  0  0  0
  4 21  1  0  0  0  0
  5 11  1  0  0  0  0
  5 25  1  0  0  0  0
  5 26  1  0  0  0  0
  6 22  1  0  0  0  0
  6 27  1  0  0  0  0
  6 28  1  0  0  0  0
  7 12  1  0  0  0  0
  7 29  1  0  0  0  0
  7 30  1  0  0  0  0
  8  9  2  0  0  0  0
  8 31  1  0  0  0  0
  9 10  1  0  0  0  0
  9 32  1  0  0  0  0
 10  4  2  0  0  0  0
 10 33  1  0  0  0  0
 11 12  1  0  0  0  0
 11 34  1  0  0  0  0
 11 35  1  0  0  0  0
 12 36  1  0  0  0  0
 12 37  1  0  0  0  0
 13  1  1  0  0  0  0
 13  5  1  0  0  0  0
 13 15  1  0  0  0  0
 14  8  1  0  0  0  0
 14 17  2  0  0  0  0
 15  3  1  0  0  0  0
 15 20  1  0  0  0  0
 15 38  1  1  0  0  0
 17 39  1  0  0  0  0
 18 20  1  0  0  0  0
 18 40  1  0  0  0  0
 18 41  1  0  0  0  0
 19  2  1  0  0  0  0
 19 42  1  0  0  0  0
 19 43  1  0  0  0  0
 20 44  1  0  0  0  0
 20 45  1  0  0  0  0
 22 46  1  0  0  0  0
 22 47  1  0  0  0  0
 22 48  1  0  0  0  0
M  CHG  1  22   1
M  END
