4n9d_ligand
 OpenBabel08222323353D

 55 57  0  0  0  0  0  0  0  0999 V2000
   18.8220   -0.2950   -5.1470 C   0  0  0  0  0  0  0  0  0  0  0  0
   19.1750    1.1030   -4.6200 C   0  0  0  0  0  0  0  0  0  0  0  0
   19.6650    1.9830   -5.7720 C   0  0  0  0  0  0  0  0  0  0  0  0
   20.3150    0.9840   -3.6130 C   0  0  0  0  0  0  0  0  0  0  0  0
   17.9490    1.7050   -3.9560 C   0  0  0  0  0  0  0  0  0  0  0  0
   17.6400    1.3520   -2.6490 C   0  0  0  0  0  0  0  0  0  0  0  0
   16.5190    1.8870   -2.0380 C   0  0  0  0  0  0  0  0  0  0  0  0
   15.6990    2.7780   -2.7120 C   0  0  0  0  0  0  0  0  0  0  0  0
   16.0120    3.1380   -4.0150 C   0  0  0  0  0  0  0  0  0  0  0  0
   17.1290    2.5960   -4.6360 C   0  0  0  0  0  0  0  0  0  0  0  0
   14.2750    3.4500   -1.9030 S   0  0  0  0  0  0  0  0  0  0  0  0
   13.5770    2.3390   -1.3460 O   0  0  0  0  0  0  0  0  0  0  0  0
   13.6390    4.3460   -2.8280 O   0  0  0  0  0  0  0  0  0  0  0  0
   14.8740    4.3680   -0.6460 N   0  0  0  0  0  0  0  0  0  0  0  0
   15.8150    5.4780   -0.9210 C   0  0  0  0  0  0  0  0  0  0  0  0
   15.7040    6.4120    0.2560 C   0  0  0  0  0  0  0  0  0  0  0  0
   14.5510    7.1560    0.3580 C   0  0  0  0  0  0  0  0  0  0  0  0
   14.3910    7.9990    1.4310 C   0  0  0  0  0  0  0  0  0  0  0  0
   15.4000    8.1300    2.3840 C   0  0  0  0  0  0  0  0  0  0  0  0
   16.5530    7.3380    2.3090 C   0  0  0  0  0  0  0  0  0  0  0  0
   16.7020    6.4930    1.2210 C   0  0  0  0  0  0  0  0  0  0  0  0
   15.0650    8.9780    3.5350 C   0  0  0  0  0  0  0  0  0  0  0  0
   14.3010    9.9170    3.4500 O   0  0  0  0  0  0  0  0  0  0  0  0
   15.5440    8.5070    4.7050 N   0  0  0  0  0  0  0  0  0  0  0  0
   15.2580    8.8920    6.0160 C   0  0  0  0  0  0  0  0  0  0  0  0
   16.0010    8.3670    7.0680 C   0  0  0  0  0  0  0  0  0  0  0  0
   15.6050    8.6790    8.3680 C   0  0  0  0  0  0  0  0  0  0  0  0
   14.4750    9.4460    8.5770 C   0  0  0  0  0  0  0  0  0  0  0  0
   13.7600    9.8970    7.5550 N   0  0  0  0  0  0  0  0  0  0  0  0
   14.1020    9.6160    6.3100 C   0  0  0  0  0  0  0  0  0  0  0  0
   19.7052   -0.7386   -5.6299 H   0  0  0  0  0  0  0  0  0  0  0  0
   18.0050   -0.2154   -5.8793 H   0  0  0  0  0  0  0  0  0  0  0  0
   18.5029   -0.9328   -4.3095 H   0  0  0  0  0  0  0  0  0  0  0  0
   19.9163    2.9828   -5.3884 H   0  0  0  0  0  0  0  0  0  0  0  0
   18.8726    2.0696   -6.5300 H   0  0  0  0  0  0  0  0  0  0  0  0
   20.5584    1.5292   -6.2257 H   0  0  0  0  0  0  0  0  0  0  0  0
   19.9946    0.3553   -2.7691 H   0  0  0  0  0  0  0  0  0  0  0  0
   20.5838    1.9846   -3.2435 H   0  0  0  0  0  0  0  0  0  0  0  0
   21.1884    0.5262   -4.1003 H   0  0  0  0  0  0  0  0  0  0  0  0
   18.2750    0.6593   -2.1086 H   0  0  0  0  0  0  0  0  0  0  0  0
   16.2794    1.6053   -1.0190 H   0  0  0  0  0  0  0  0  0  0  0  0
   15.3841    3.8427   -4.5482 H   0  0  0  0  0  0  0  0  0  0  0  0
   17.3627    2.8700   -5.6584 H   0  0  0  0  0  0  0  0  0  0  0  0
   14.5975    4.1687    0.2941 H   0  0  0  0  0  0  0  0  0  0  0  0
   15.5343    5.9969   -1.8494 H   0  0  0  0  0  0  0  0  0  0  0  0
   16.8425    5.0957   -1.0109 H   0  0  0  0  0  0  0  0  0  0  0  0
   13.7787    7.0780   -0.3987 H   0  0  0  0  0  0  0  0  0  0  0  0
   13.4735    8.5664    1.5373 H   0  0  0  0  0  0  0  0  0  0  0  0
   17.3102    7.3850    3.0833 H   0  0  0  0  0  0  0  0  0  0  0  0
   17.5994    5.8931    1.1218 H   0  0  0  0  0  0  0  0  0  0  0  0
   16.2089    7.7649    4.6196 H   0  0  0  0  0  0  0  0  0  0  0  0
   16.8617    7.7345    6.8829 H   0  0  0  0  0  0  0  0  0  0  0  0
   16.1823    8.3207    9.2126 H   0  0  0  0  0  0  0  0  0  0  0  0
   14.1687    9.6823    9.5896 H   0  0  0  0  0  0  0  0  0  0  0  0
   13.4696    9.9560    5.4979 H   0  0  0  0  0  0  0  0  0  0  0  0
  1  2  1  0  0  0  0
  1 31  1  0  0  0  0
  1 32  1  0  0  0  0
  1 33  1  0  0  0  0
  2  3  1  0  0  0  0
  2  4  1  0  0  0  0
  2  5  1  0  0  0  0
  3 34  1  0  0  0  0
  3 35  1  0  0  0  0
  3 36  1  0  0  0  0
  4 37  1  0  0  0  0
  4 38  1  0  0  0  0
  4 39  1  0  0  0  0
  5  6  2  0  0  0  0
  5 10  1  0  0  0  0
  6  7  1  0  0  0  0
  6 40  1  0  0  0  0
  7  8  2  0  0  0  0
  7 41  1  0  0  0  0
  8  9  1  0  0  0  0
  8 11  1  0  0  0  0
  9 10  2  0  0  0  0
  9 42  1  0  0  0  0
 10 43  1  0  0  0  0
 11 12  2  0  0  0  0
 11 13  2  0  0  0  0
 11 14  1  0  0  0  0
 14 15  1  0  0  0  0
 14 44  1  0  0  0  0
 15 16  1  0  0  0  0
 15 45  1  0  0  0  0
 15 46  1  0  0  0  0
 16 17  2  0  0  0  0
 16 21  1  0  0  0  0
 17 18  1  0  0  0  0
 17 47  1  0  0  0  0
 18 19  2  0  0  0  0
 18 48  1  0  0  0  0
 19 20  1  0  0  0  0
 19 22  1  0  0  0  0
 20 21  2  0  0  0  0
 20 49  1  0  0  0  0
 21 50  1  0  0  0  0
 22 23  2  0  0  0  0
 22 24  1  0  0  0  0
 24 25  1  0  0  0  0
 24 51  1  0  0  0  0
 25 26  2  0  0  0  0
 25 30  1  0  0  0  0
 26 27  1  0  0  0  0
 26 52  1  0  0  0  0
 27 28  2  0  0  0  0
 27 53  1  0  0  0  0
 28 29  1  0  0  0  0
 28 54  1  0  0  0  0
 29 30  2  0  0  0  0
 30 55  1  0  0  0  0
M  END
