4na8_ligand
 OpenBabel08222323353D

 66 70  0  0  1  0  0  0  0  0999 V2000
   40.1380  -21.1010   27.5760 C   0  0  0  0  0  0  0  0  0  0  0  0
   43.9890  -22.4250   30.7890 C   0  0  0  0  0  0  0  0  0  0  0  0
   41.9610  -22.2410   28.8470 C   0  0  0  0  0  0  0  0  0  0  0  0
   40.8820  -22.2540   27.8220 C   0  0  0  0  0  0  0  0  0  0  0  0
   37.5860  -15.5720   26.8770 C   0  0  0  0  0  0  0  0  0  0  0  0
   36.8620  -15.0780   27.9660 C   0  0  0  0  0  0  0  0  0  0  0  0
   41.7000  -21.9220   30.1890 C   0  0  0  0  0  0  0  0  0  0  0  0
   39.6040  -16.6320   24.8730 C   0  0  0  0  0  0  0  0  0  0  0  0
   39.0410  -21.1040   26.7270 C   0  0  0  0  0  0  0  0  0  0  0  0
   37.9280  -16.9240   26.7900 C   0  0  0  0  0  0  0  0  0  0  0  0
   37.5610  -17.7920   27.8350 C   0  0  0  0  0  0  0  0  0  0  0  0
   38.6940  -22.2870   26.0960 C   0  0  0  0  0  0  0  0  0  0  0  0
   36.8110  -17.3010   28.9060 C   0  0  0  0  0  0  0  0  0  0  0  0
   40.3510  -21.4930   30.6400 C   0  0  0  0  0  0  0  0  0  0  0  0
   41.7470  -15.1840   23.7820 C   0  0  0  0  0  0  0  0  0  0  0  0
   41.6740  -15.4020   25.1440 C   0  0  0  0  0  0  0  0  0  0  0  0
   40.7610  -15.6840   22.9600 C   0  0  0  0  0  0  0  0  0  0  0  0
   39.4190  -23.4500   26.3310 C   0  0  0  0  0  0  0  0  0  0  0  0
   40.5090  -23.4330   27.1830 C   0  0  0  0  0  0  0  0  0  0  0  0
   43.2590  -22.6090   28.4920 C   0  0  0  0  0  0  0  0  0  0  0  0
   44.2570  -22.6950   29.4490 C   0  0  0  0  0  0  0  0  0  0  0  0
   36.4670  -15.9630   28.9670 C   0  0  0  0  0  0  0  0  0  0  0  0
   40.6160  -16.1230   25.6880 C   0  0  0  0  0  0  0  0  0  0  0  0
   39.6910  -16.3970   23.4970 C   0  0  0  0  0  0  0  0  0  0  0  0
   42.7070  -22.0140   31.1500 C   0  0  0  0  0  0  0  0  0  0  0  0
   36.3960  -13.6070   28.0070 C   0  0  0  0  0  3  0  0  0  0  0  0
   45.1090  -22.5510   31.8010 C   0  0  0  0  0  0  0  0  0  0  0  0
   39.1600  -18.8820   25.7150 C   0  0  0  0  0  0  0  0  0  0  0  0
   38.2440  -19.8320   26.5080 C   0  0  2  0  0  0  0  0  0  0  0  0
   38.4860  -17.5050   25.4790 C   0  0  2  0  0  0  0  0  0  0  0  0
   37.3460  -17.7280   24.4600 C   0  0  0  0  0  0  0  0  0  0  0  0
   36.9570  -12.6720   27.2710 N   0  0  0  0  0  0  0  0  0  0  0  0
   37.9000  -19.1550   27.8000 N   0  0  0  0  0  0  0  0  0  0  0  0
   35.4350  -13.2070   28.9260 N   0  0  0  0  0  0  0  0  0  0  0  0
   44.8180  -22.3820   33.1020 N   0  0  0  0  0  0  0  0  0  0  0  0
   46.2710  -22.7370   31.4040 O   0  0  0  0  0  0  0  0  0  0  0  0
   39.3660  -22.2310   30.5570 O   0  5  0  0  0  0  0  0  0  0  0  0
   40.3090  -20.2640   31.0180 O   0  0  0  0  0  0  0  0  0  0  0  0
   40.4250  -20.1756   28.0621 H   0  0  0  0  0  0  0  0  0  0  0  0
   37.8873  -14.8945   26.0863 H   0  0  0  0  0  0  0  0  0  0  0  0
   37.8514  -22.3064   25.4143 H   0  0  0  0  0  0  0  0  0  0  0  0
   36.4962  -17.9739   29.6954 H   0  0  0  0  0  0  0  0  0  0  0  0
   42.5746  -14.6233   23.3627 H   0  0  0  0  0  0  0  0  0  0  0  0
   42.4471  -15.0082   25.7939 H   0  0  0  0  0  0  0  0  0  0  0  0
   40.8179  -15.5219   21.8897 H   0  0  0  0  0  0  0  0  0  0  0  0
   39.1289  -24.3742   25.8445 H   0  0  0  0  0  0  0  0  0  0  0  0
   41.0749  -24.3417   27.3536 H   0  0  0  0  0  0  0  0  0  0  0  0
   43.4892  -22.8301   27.4560 H   0  0  0  0  0  0  0  0  0  0  0  0
   45.2605  -22.9763   29.1509 H   0  0  0  0  0  0  0  0  0  0  0  0
   35.8828  -15.5982   29.8040 H   0  0  0  0  0  0  0  0  0  0  0  0
   40.5772  -16.2915   26.7581 H   0  0  0  0  0  0  0  0  0  0  0  0
   38.9160  -16.7744   22.8398 H   0  0  0  0  0  0  0  0  0  0  0  0
   42.4914  -21.7646   32.1827 H   0  0  0  0  0  0  0  0  0  0  0  0
   39.3904  -19.3384   24.7410 H   0  0  0  0  0  0  0  0  0  0  0  0
   40.0922  -18.7312   26.2791 H   0  0  0  0  0  0  0  0  0  0  0  0
   37.3246  -20.0538   25.9464 H   0  0  0  0  0  0  0  0  0  0  0  0
   36.8385  -16.7722   24.2626 H   0  0  0  0  0  0  0  0  0  0  0  0
   36.6234  -18.4489   24.8701 H   0  0  0  0  0  0  0  0  0  0  0  0
   37.7645  -18.1215   23.5219 H   0  0  0  0  0  0  0  0  0  0  0  0
   36.6181  -11.7009   27.3258 H   0  0  0  0  0  0  0  0  0  0  0  0
   37.7351  -12.9110   26.6399 H   0  0  0  0  0  0  0  0  0  0  0  0
   37.9123  -19.6972   28.6757 H   0  0  0  0  0  0  0  0  0  0  0  0
   34.9704  -13.9063   29.5227 H   0  0  0  0  0  0  0  0  0  0  0  0
   35.1867  -12.2110   29.0110 H   0  0  0  0  0  0  0  0  0  0  0  0
   45.5395  -22.4600   33.7900 H   0  0  0  0  0  0  0  0  0  0  0  0
   43.8799  -22.1782   33.3822 H   0  0  0  0  0  0  0  0  0  0  0  0
  1  4  2  0  0  0  0
  1 39  1  0  0  0  0
  2 27  1  0  0  0  0
  3  7  1  0  0  0  0
  3 20  2  0  0  0  0
  4  3  1  0  0  0  0
  4 19  1  0  0  0  0
  5  6  2  0  0  0  0
  5 40  1  0  0  0  0
  6 22  1  0  0  0  0
  6 26  1  0  0  0  0
  7 14  1  0  0  0  0
  7 25  2  0  0  0  0
  8 23  2  0  0  0  0
  8 24  1  0  0  0  0
  9  1  1  0  0  0  0
  9 12  2  0  0  0  0
 10  5  1  0  0  0  0
 10 11  2  0  0  0  0
 11 13  1  0  0  0  0
 11 33  1  0  0  0  0
 12 18  1  0  0  0  0
 12 41  1  0  0  0  0
 13 22  2  0  0  0  0
 13 42  1  0  0  0  0
 14 37  1  0  0  0  0
 14 38  2  0  0  0  0
 15 43  1  0  0  0  0
 16 15  2  0  0  0  0
 16 44  1  0  0  0  0
 17 15  1  0  0  0  0
 17 45  1  0  0  0  0
 18 19  2  0  0  0  0
 18 46  1  0  0  0  0
 19 47  1  0  0  0  0
 20 21  1  0  0  0  0
 20 48  1  0  0  0  0
 21  2  2  0  0  0  0
 21 49  1  0  0  0  0
 22 50  1  0  0  0  0
 23 16  1  0  0  0  0
 23 51  1  0  0  0  0
 24 17  2  0  0  0  0
 24 52  1  0  0  0  0
 25  2  1  0  0  0  0
 25 53  1  0  0  0  0
 26 32  1  0  0  0  0
 26 34  1  0  0  0  0
 27 35  1  0  0  0  0
 27 36  2  0  0  0  0
 28 29  1  0  0  0  0
 28 30  1  0  0  0  0
 28 54  1  0  0  0  0
 28 55  1  0  0  0  0
 29  9  1  0  0  0  0
 29 33  1  0  0  0  0
 29 56  1  6  0  0  0
 30  8  1  0  0  0  0
 30 10  1  0  0  0  0
 30 31  1  6  0  0  0
 31 57  1  0  0  0  0
 31 58  1  0  0  0  0
 31 59  1  0  0  0  0
 32 60  1  0  0  0  0
 32 61  1  0  0  0  0
 33 62  1  0  0  0  0
 34 63  1  0  0  0  0
 34 64  1  0  0  0  0
 35 65  1  0  0  0  0
 35 66  1  0  0  0  0
M  CHG  1  37  -1
M  END
