4nak_ligand
 OpenBabel08222323353D

 21 22  0  0  0  0  0  0  0  0999 V2000
    4.1540   24.8440  -22.7010 C   0  0  0  0  0  0  0  0  0  0  0  0
    4.6760   23.8350  -20.5670 C   0  0  0  0  0  0  0  0  0  0  0  0
    5.0560   22.7150  -19.6720 C   0  0  0  0  0  0  0  0  0  0  0  0
    4.5690   25.1040  -19.9820 C   0  0  0  0  0  0  0  0  0  0  0  0
    4.2360   26.2170  -20.7540 C   0  0  0  0  0  0  0  0  0  0  0  0
    4.4840   23.7010  -21.9550 C   0  0  0  0  0  0  0  0  0  0  0  0
    4.6030   22.4720  -22.6150 O   0  0  0  0  0  0  0  0  0  0  0  0
    4.0310   26.0940  -22.1150 C   0  0  0  0  0  0  0  0  0  0  0  0
    6.1550   20.9500  -18.9440 C   0  0  0  0  0  0  0  0  0  0  0  0
    5.2550   21.3000  -17.9350 C   0  0  0  0  0  0  0  0  0  0  0  0
    4.5660   22.4260  -18.3930 C   0  0  0  0  0  0  0  0  0  0  0  0
    6.0140   21.8170  -19.9600 N   0  0  0  0  0  0  0  0  0  0  0  0
    4.0730   27.8870  -20.0050 Br  0  0  0  0  0  0  0  0  0  0  0  0
    3.8530   24.7760  -24.5220 Br  0  0  0  0  0  0  0  0  0  0  0  0
    3.2230   23.3480  -17.5010 Br  0  0  0  0  0  0  0  0  0  0  0  0
    5.0490   20.4360  -16.3050 Br  0  0  0  0  0  0  0  0  0  0  0  0
    7.3340   19.5270  -18.8990 Br  0  0  0  0  0  0  0  0  0  0  0  0
    4.7468   25.2218  -18.9192 H   0  0  0  0  0  0  0  0  0  0  0  0
    3.9717   21.8591  -22.2569 H   0  0  0  0  0  0  0  0  0  0  0  0
    3.7781   26.9610  -22.7146 H   0  0  0  0  0  0  0  0  0  0  0  0
    6.5604   21.7968  -20.8329 H   0  0  0  0  0  0  0  0  0  0  0  0
  1  8  1  0  0  0  0
  1 14  1  0  0  0  0
  2  4  2  0  0  0  0
  2  6  1  0  0  0  0
  3  2  1  0  0  0  0
  3 11  2  0  0  0  0
  4  5  1  0  0  0  0
  4 18  1  0  0  0  0
  5  8  2  0  0  0  0
  5 13  1  0  0  0  0
  6  1  2  0  0  0  0
  6  7  1  0  0  0  0
  7 19  1  0  0  0  0
  8 20  1  0  0  0  0
  9 10  2  0  0  0  0
  9 12  1  0  0  0  0
  9 17  1  0  0  0  0
 10 11  1  0  0  0  0
 10 16  1  0  0  0  0
 11 15  1  0  0  0  0
 12  3  1  0  0  0  0
 12 21  1  0  0  0  0
M  END
