4nan_ligand
 OpenBabel08222323353D

 21 22  0  0  0  0  0  0  0  0999 V2000
    4.5370   24.8310  -21.3160 C   0  0  0  0  0  0  0  0  0  0  0  0
    4.1680   25.9470  -21.9810 C   0  0  0  0  0  0  0  0  0  0  0  0
    3.8880   27.0750  -21.2890 C   0  0  0  0  0  0  0  0  0  0  0  0
    5.0470   23.5600  -19.2890 C   0  0  0  0  0  0  0  0  0  0  0  0
    6.3830   21.8480  -18.9240 C   0  0  0  0  0  0  0  0  0  0  0  0
    7.9580   20.6140  -19.1300 Br  0  0  0  0  0  0  0  0  0  0  0  0
    5.3380   21.7070  -18.0590 C   0  0  0  0  0  0  0  0  0  0  0  0
    5.1380   20.1850  -16.7870 Br  0  0  0  0  0  0  0  0  0  0  0  0
    4.4960   22.7750  -18.2910 C   0  0  0  0  0  0  0  0  0  0  0  0
    2.7560   23.1990  -17.4180 Br  0  0  0  0  0  0  0  0  0  0  0  0
    6.2260   22.9750  -19.6520 N   0  0  0  0  0  0  0  0  0  0  0  0
    4.5900   24.8140  -19.9320 C   0  0  0  0  0  0  0  0  0  0  0  0
    4.3010   25.9650  -19.2180 C   0  0  0  0  0  0  0  0  0  0  0  0
    4.7780   23.7770  -22.1190 O   0  0  0  0  0  0  0  0  0  0  0  0
    4.0680   25.7530  -23.8550 Br  0  0  0  0  0  0  0  0  0  0  0  0
    3.9480   27.0800  -19.9110 C   0  0  0  0  0  0  0  0  0  0  0  0
    3.6151   27.9797  -21.8201 H   0  0  0  0  0  0  0  0  0  0  0  0
    6.8834   23.3320  -20.3600 H   0  0  0  0  0  0  0  0  0  0  0  0
    4.3548   25.9765  -18.1354 H   0  0  0  0  0  0  0  0  0  0  0  0
    4.6784   24.0419  -23.0259 H   0  0  0  0  0  0  0  0  0  0  0  0
    3.7094   27.9892  -19.3710 H   0  0  0  0  0  0  0  0  0  0  0  0
  1  2  2  0  0  0  0
  1 14  1  0  0  0  0
  2  3  1  0  0  0  0
  2 15  1  0  0  0  0
  3 16  2  0  0  0  0
  3 17  1  0  0  0  0
  4  9  2  0  0  0  0
  4 12  1  0  0  0  0
  5  6  1  0  0  0  0
  5  7  2  0  0  0  0
  5 11  1  0  0  0  0
  7  8  1  0  0  0  0
  7  9  1  0  0  0  0
  9 10  1  0  0  0  0
 11  4  1  0  0  0  0
 11 18  1  0  0  0  0
 12  1  1  0  0  0  0
 12 13  2  0  0  0  0
 13 16  1  0  0  0  0
 13 19  1  0  0  0  0
 14 20  1  0  0  0  0
 16 21  1  0  0  0  0
M  END
