4nat_ligand
 OpenBabel08222323353D

 51 53  0  0  1  0  0  0  0  0999 V2000
   26.6110   44.3150  -32.5050 C   0  0  0  0  0  0  0  0  0  0  0  0
   24.5480   43.5960  -31.5580 C   0  0  0  0  0  0  0  0  0  0  0  0
   21.3200   40.7940  -29.8370 C   0  0  0  0  0  0  0  0  0  0  0  0
   22.7360   43.0050  -32.8100 C   0  0  0  0  0  0  0  0  0  0  0  0
   21.9840   42.7000  -34.0300 C   0  0  1  0  0  0  0  0  0  0  0  0
   22.5710   41.5370  -34.8870 C   0  0  0  0  0  0  0  0  0  0  0  0
   22.2080   41.8240  -36.3470 C   0  0  0  0  0  0  0  0  0  0  0  0
   20.6930   41.5830  -36.4690 C   0  0  0  0  0  0  0  0  0  0  0  0
   19.9460   42.6820  -35.7180 C   0  0  0  0  0  0  0  0  0  0  0  0
   19.8380   44.1750  -33.6080 C   0  0  0  0  0  0  0  0  0  0  0  0
   18.2550   44.9410  -32.0320 C   0  0  0  0  0  0  0  0  0  0  0  0
   19.8390   44.6540  -30.1100 C   0  0  0  0  0  0  0  0  0  0  0  0
   18.8230   46.8140  -30.6040 C   0  0  0  0  0  0  0  0  0  0  0  0
   25.7840   44.1610  -31.3630 O   0  0  0  0  0  0  0  0  0  0  0  0
   23.8630   43.1410  -30.3920 C   0  0  0  0  0  0  0  0  0  0  0  0
   22.5960   42.5660  -30.5270 C   0  0  0  0  0  0  0  0  0  0  0  0
   21.8640   42.0890  -29.4720 O   0  0  0  0  0  0  0  0  0  0  0  0
   22.0790   42.5250  -31.7550 N   0  0  0  0  0  0  0  0  0  0  0  0
   23.9780   43.5300  -32.7580 N   0  0  0  0  0  0  0  0  0  0  0  0
   20.6040   43.1620  -34.4450 C   0  0  2  0  0  0  0  0  0  0  0  0
   20.1360   45.3000  -33.8590 O   0  0  0  0  0  0  0  0  0  0  0  0
   18.9130   43.8190  -32.6850 N   0  0  0  0  0  0  0  0  0  0  0  0
   19.0210   45.4690  -30.8860 C   0  0  0  0  0  0  0  0  0  0  0  0
   20.5090   45.2290  -29.0270 C   0  0  0  0  0  0  0  0  0  0  0  0
   20.2970   46.5920  -28.7520 C   0  0  0  0  0  0  0  0  0  0  0  0
   21.0260   47.3020  -27.3720 Cl  0  0  0  0  0  0  0  0  0  0  0  0
   19.4660   47.3730  -29.5240 C   0  0  0  0  0  0  0  0  0  0  0  0
   19.2620   49.0620  -29.2170 Cl  0  0  0  0  0  0  0  0  0  0  0  0
   27.5642   44.7766  -32.2078 H   0  0  0  0  0  0  0  0  0  0  0  0
   26.1053   44.9587  -33.2398 H   0  0  0  0  0  0  0  0  0  0  0  0
   26.8049   43.3292  -32.9530 H   0  0  0  0  0  0  0  0  0  0  0  0
   20.7282   40.3957  -28.9996 H   0  0  0  0  0  0  0  0  0  0  0  0
   22.1435   40.1016  -30.0660 H   0  0  0  0  0  0  0  0  0  0  0  0
   20.6758   40.9031  -30.7220 H   0  0  0  0  0  0  0  0  0  0  0  0
   22.4770   43.5052  -34.5943 H   0  0  0  0  0  0  0  0  0  0  0  0
   22.1340   40.5782  -34.5713 H   0  0  0  0  0  0  0  0  0  0  0  0
   23.6641   41.4977  -34.7710 H   0  0  0  0  0  0  0  0  0  0  0  0
   22.7570   41.1457  -37.0167 H   0  0  0  0  0  0  0  0  0  0  0  0
   22.4499   42.8663  -36.6021 H   0  0  0  0  0  0  0  0  0  0  0  0
   20.4404   40.6043  -36.0351 H   0  0  0  0  0  0  0  0  0  0  0  0
   20.4023   41.5999  -37.5298 H   0  0  0  0  0  0  0  0  0  0  0  0
   18.9480   42.2981  -35.4598 H   0  0  0  0  0  0  0  0  0  0  0  0
   19.8438   43.5446  -36.3929 H   0  0  0  0  0  0  0  0  0  0  0  0
   17.2698   44.6092  -31.6725 H   0  0  0  0  0  0  0  0  0  0  0  0
   18.1241   45.7478  -32.7681 H   0  0  0  0  0  0  0  0  0  0  0  0
   19.9535   43.6008  -30.3395 H   0  0  0  0  0  0  0  0  0  0  0  0
   18.1705   47.4155  -31.2265 H   0  0  0  0  0  0  0  0  0  0  0  0
   24.3194   43.2400  -29.4137 H   0  0  0  0  0  0  0  0  0  0  0  0
   20.1560   42.3295  -33.8826 H   0  0  0  0  0  0  0  0  0  0  0  0
   18.7001   42.8658  -32.4703 H   0  0  0  0  0  0  0  0  0  0  0  0
   21.1776   44.6375  -28.4121 H   0  0  0  0  0  0  0  0  0  0  0  0
  1 29  1  0  0  0  0
  1 30  1  0  0  0  0
  1 31  1  0  0  0  0
  2 14  1  0  0  0  0
  2 19  1  0  0  0  0
  3 32  1  0  0  0  0
  3 33  1  0  0  0  0
  3 34  1  0  0  0  0
  4  5  1  0  0  0  0
  4 18  1  0  0  0  0
  5  6  1  0  0  0  0
  5 20  1  0  0  0  0
  5 35  1  6  0  0  0
  6  7  1  0  0  0  0
  6 36  1  0  0  0  0
  6 37  1  0  0  0  0
  7  8  1  0  0  0  0
  7 38  1  0  0  0  0
  7 39  1  0  0  0  0
  8 40  1  0  0  0  0
  8 41  1  0  0  0  0
  9  8  1  0  0  0  0
  9 42  1  0  0  0  0
  9 43  1  0  0  0  0
 10 21  2  0  0  0  0
 10 22  1  0  0  0  0
 11 23  1  0  0  0  0
 11 44  1  0  0  0  0
 11 45  1  0  0  0  0
 12 24  1  0  0  0  0
 12 46  1  0  0  0  0
 13 27  2  0  0  0  0
 13 47  1  0  0  0  0
 14  1  1  0  0  0  0
 15  2  2  0  0  0  0
 15 48  1  0  0  0  0
 16 15  1  0  0  0  0
 16 17  1  0  0  0  0
 16 18  2  0  0  0  0
 17  3  1  0  0  0  0
 19  4  2  0  0  0  0
 20  9  1  0  0  0  0
 20 10  1  0  0  0  0
 20 49  1  1  0  0  0
 22 11  1  0  0  0  0
 22 50  1  0  0  0  0
 23 12  2  0  0  0  0
 23 13  1  0  0  0  0
 24 25  2  0  0  0  0
 24 51  1  0  0  0  0
 25 26  1  0  0  0  0
 25 27  1  0  0  0  0
 27 28  1  0  0  0  0
M  END
