4nb3_ligand
 OpenBabel08222323353D

263270  0  0  1  0  0  0  0  0999 V2000
   29.6260  -17.8810   26.3830 C   0  0  0  0  0  0  0  0  0  0  0  0
   30.7100  -18.6010   26.8740 C   0  0  0  0  0  0  0  0  0  0  0  0
   30.8560  -18.7990   28.2420 C   0  0  0  0  0  0  0  0  0  0  0  0
   29.9130  -18.2810   29.1310 C   0  0  0  0  0  0  0  0  0  0  0  0
   27.3460  -16.3510   25.2360 C   0  0  0  0  0  0  0  0  0  0  0  0
   27.4830  -15.0410   24.7680 C   0  0  0  0  0  0  0  0  0  0  0  0
   27.3610  -14.7230   23.3940 C   0  0  0  0  0  0  0  0  0  0  0  0
   27.0850  -15.7790   22.5250 C   0  0  0  0  0  0  0  0  0  0  0  0
   26.9770  -17.0940   22.9810 C   0  0  0  0  0  0  0  0  0  0  0  0
   27.0760  -17.4010   24.3310 C   0  0  0  0  0  0  0  0  0  0  0  0
   26.9280  -18.8560   24.6990 C   0  0  0  0  0  0  0  0  0  0  0  0
   24.4670  -14.7850   28.2540 C   0  0  0  0  0  0  0  0  0  0  0  0
   25.3870  -15.2900   27.3150 C   0  0  0  0  0  0  0  0  0  0  0  0
   26.5160  -16.0230   27.7300 C   0  0  0  0  0  0  0  0  0  0  0  0
   26.6860  -16.2380   29.0840 C   0  0  0  0  0  0  0  0  0  0  0  0
   25.7680  -15.7410   30.0330 C   0  0  0  0  0  0  0  0  0  0  0  0
   24.6600  -15.0200   29.6190 C   0  0  0  0  0  0  0  0  0  0  0  0
   27.5000  -16.5800   26.7680 C   0  0  0  0  0  0  0  0  0  0  0  0
   28.6640  -17.3450   27.2620 C   0  0  0  0  0  0  0  0  0  0  0  0
   28.8180  -17.5490   28.6230 C   0  0  0  0  0  0  0  0  0  0  0  0
   27.8300  -17.0010   29.5520 O   0  0  0  0  0  0  0  0  0  0  0  0
   26.3090  -19.1980   25.7360 O   0  5  0  0  0  0  0  0  0  0  0  0
   27.4160  -19.7270   23.9170 O   0  0  0  0  0  0  0  0  0  0  0  0
   27.0080  -15.6280   21.1160 N   0  0  0  0  0  0  0  0  0  0  0  0
   25.8780  -16.0250   20.3300 C   0  0  0  0  0  0  0  0  0  0  0  0
   24.7700  -16.4690   21.0960 N   0  0  0  0  0  0  0  0  0  0  0  0
   23.5620  -16.8580   20.3750 C   0  0  0  0  0  0  0  0  0  0  0  0
   23.1500  -18.2750   20.7410 C   0  0  0  0  0  0  0  0  0  0  0  0
   21.9010  -18.6610   19.9670 C   0  0  0  0  0  0  0  0  0  0  0  0
   22.0320  -20.0230   19.3390 C   0  0  0  0  0  0  0  0  0  0  0  0
   31.8150  -19.4390   28.6660 O   0  0  0  0  0  0  0  0  0  0  0  0
   23.7650  -14.5240   30.5430 O   0  0  0  0  0  0  0  0  0  0  0  0
   20.6740  -20.6110   18.9180 C   0  0  0  0  0  0  0  0  0  0  0  0
   25.8950  -15.8930   18.6750 S   0  0  0  0  0  0  0  0  0  0  0  0
   20.8890  -21.9490   18.3320 C   0  0  0  0  0  0  0  0  0  0  0  0
   21.2600  -22.9470   18.9130 O   0  0  0  0  0  0  0  0  0  0  0  0
   20.3810  -22.0770   17.0220 N   0  0  0  0  0  0  0  0  0  0  0  0
   20.5990  -23.3370   16.3000 C   0  0  2  0  0  0  0  0  0  0  0  0
   21.8650  -23.3320   15.4410 C   0  0  0  0  0  0  0  0  0  0  0  0
   21.8640  -23.8270   14.2990 O   0  0  0  0  0  0  0  0  0  0  0  0
   19.3690  -23.6370   15.4040 C   0  0  0  0  0  0  0  0  0  0  0  0
   19.1420  -22.6070   14.3090 C   0  0  0  0  0  0  0  0  0  0  0  0
   19.7300  -21.4870   14.3630 O   0  5  0  0  0  0  0  0  0  0  0  0
   18.3290  -22.8960   13.3970 O   0  0  0  0  0  0  0  0  0  0  0  0
   22.9390  -22.7170   15.9520 N   0  0  0  0  0  0  0  0  0  0  0  0
   24.1750  -22.5380   15.2100 C   0  0  2  0  0  0  0  0  0  0  0  0
   25.2660  -22.3540   16.2500 C   0  0  0  0  0  0  0  0  0  0  0  0
   24.9740  -22.0850   17.4350 O   0  0  0  0  0  0  0  0  0  0  0  0
   24.1130  -21.3110   14.2540 C   0  0  0  0  0  0  0  0  0  0  0  0
   23.8200  -20.0090   14.9820 C   0  0  0  0  0  0  0  0  0  0  0  0
   24.8480  -19.2600   15.5700 C   0  0  0  0  0  0  0  0  0  0  0  0
   22.4930  -19.5800   15.1390 C   0  0  0  0  0  0  0  0  0  0  0  0
   24.5750  -18.1440   16.2500 C   0  0  0  0  0  0  0  0  0  0  0  0
   22.2020  -18.4300   15.8270 C   0  0  0  0  0  0  0  0  0  0  0  0
   23.2540  -17.7010   16.3830 C   0  0  0  0  0  0  0  0  0  0  0  0
   26.5230  -22.4940   15.8100 N   0  0  0  0  0  0  0  0  0  0  0  0
   27.7060  -22.2700   16.6650 C   0  0  2  0  0  0  0  0  0  0  0  0
   28.5040  -21.0390   16.2660 C   0  0  0  0  0  0  0  0  0  0  0  0
   28.2930  -20.4880   15.1840 O   0  0  0  0  0  0  0  0  0  0  0  0
   28.6790  -23.4260   16.5880 C   0  0  2  0  0  0  0  0  0  0  0  0
   29.2020  -23.4710   15.2600 O   0  0  0  0  0  0  0  0  0  0  0  0
   27.9980  -24.7440   16.9460 C   0  0  0  0  0  0  0  0  0  0  0  0
   29.4590  -20.6410   17.0940 N   0  0  0  0  0  0  0  0  0  0  0  0
   30.3370  -19.5310   16.7420 C   0  0  2  0  0  0  0  0  0  0  0  0
   31.1500  -19.8720   15.4980 C   0  0  0  0  0  0  0  0  0  0  0  0
   31.3670  -19.0190   14.6520 O   0  0  0  0  0  0  0  0  0  0  0  0
   31.2320  -19.1550   17.9340 C   0  0  0  0  0  0  0  0  0  0  0  0
   31.5620  -21.1290   15.3650 N   0  0  0  0  0  0  0  0  0  0  0  0
   32.3380  -21.5330   14.1920 C   0  0  2  0  0  0  0  0  0  0  0  0
   31.4680  -21.4980   12.9250 C   0  0  0  0  0  0  0  0  0  0  0  0
   31.9740  -21.1810   11.8410 O   0  0  0  0  0  0  0  0  0  0  0  0
   32.9590  -22.8990   14.3930 C   0  0  0  0  0  0  0  0  0  0  0  0
   34.1480  -22.8710   15.3380 C   0  0  0  0  0  0  0  0  0  0  0  0
   34.7340  -21.7800   15.5790 O   0  5  0  0  0  0  0  0  0  0  0  0
   34.5840  -23.9620   15.7390 O   0  0  0  0  0  0  0  0  0  0  0  0
   30.1430  -21.7560   13.0450 N   0  0  0  0  0  0  0  0  0  0  0  0
   29.2240  -21.5760   11.9240 C   0  0  2  0  0  0  0  0  0  0  0  0
   29.2910  -20.0960   11.4620 C   0  0  0  0  0  0  0  0  0  0  0  0
   29.3290  -19.8240   10.2550 O   0  0  0  0  0  0  0  0  0  0  0  0
   27.7770  -21.9250   12.3110 C   0  0  0  0  0  0  0  0  0  0  0  0
   27.5500  -23.4060   12.4960 C   0  0  0  0  0  0  0  0  0  0  0  0
   28.2160  -24.2260   11.8170 O   0  5  0  0  0  0  0  0  0  0  0  0
   26.6160  -23.7460   13.2700 O   0  0  0  0  0  0  0  0  0  0  0  0
   29.1990  -19.1570   12.4030 N   0  0  0  0  0  0  0  0  0  0  0  0
   29.2370  -17.7310   12.0440 C   0  0  2  0  0  0  0  0  0  0  0  0
   30.5330  -17.4080   11.3310 C   0  0  0  0  0  0  0  0  0  0  0  0
   30.5240  -16.6550   10.3460 O   0  0  0  0  0  0  0  0  0  0  0  0
   29.0880  -16.8440   13.3040 C   0  0  0  0  0  0  0  0  0  0  0  0
   27.7410  -16.9970   14.0390 C   0  0  0  0  0  0  0  0  0  0  0  0
   27.7430  -15.9550   15.1830 C   0  0  0  0  0  0  0  0  0  0  0  0
   26.5370  -16.7780   13.1280 C   0  0  0  0  0  0  0  0  0  0  0  0
   31.6380  -17.9220   11.8330 N   0  0  0  0  0  0  0  0  0  0  0  0
   32.9180  -17.6870   11.1410 C   0  0  2  0  0  0  0  0  0  0  0  0
   32.8840  -18.2180    9.7030 C   0  0  0  0  0  0  0  0  0  0  0  0
   33.4140  -17.5460    8.7700 O   0  0  0  0  0  0  0  0  0  0  0  0
   34.0770  -18.3450   11.9020 C   0  0  0  0  0  0  0  0  0  0  0  0
   34.3820  -17.7030   13.2590 C   0  0  0  0  0  0  0  0  0  0  0  0
   35.1600  -16.3840   13.2120 C   0  0  0  0  0  0  0  0  0  0  0  0
   35.5510  -15.8910   12.1000 O   0  5  0  0  0  0  0  0  0  0  0  0
   35.4120  -15.8720   14.3200 O   0  0  0  0  0  0  0  0  0  0  0  0
   32.3030  -19.4060    9.4920 N   0  0  0  0  0  0  0  0  0  0  0  0
   32.1950  -19.9590    8.1490 C   0  0  2  0  0  0  0  0  0  0  0  0
   31.3090  -19.0990    7.2290 C   0  0  0  0  0  0  0  0  0  0  0  0
   31.6770  -18.7330    6.1060 O   0  0  0  0  0  0  0  0  0  0  0  0
   31.6320  -21.3760    8.2450 C   0  0  0  0  0  0  0  0  0  0  0  0
   31.5050  -22.0330    6.8850 C   0  0  0  0  0  0  0  0  0  0  0  0
   30.8110  -23.3870    6.9330 C   0  0  0  0  0  0  0  0  0  0  0  0
   30.9590  -24.1100    7.9350 O   0  5  0  0  0  0  0  0  0  0  0  0
   30.1060  -23.7220    5.9430 O   0  0  0  0  0  0  0  0  0  0  0  0
   30.1300  -18.7140    7.7460 N   0  0  0  0  0  0  0  0  0  0  0  0
   29.1860  -17.9840    6.9240 C   0  0  2  0  0  0  0  0  0  0  0  0
   29.6900  -16.5760    6.5900 C   0  0  0  0  0  0  0  0  0  0  0  0
   29.2710  -16.0590    5.5500 O   0  0  0  0  0  0  0  0  0  0  0  0
   27.7880  -17.9410    7.6220 C   0  0  0  0  0  0  0  0  0  0  0  0
   27.2200  -19.3340    7.8330 C   0  0  0  0  0  0  0  0  0  0  0  0
   27.5120  -20.4470    7.0800 C   0  0  0  0  0  0  0  0  0  0  0  0
   26.3620  -19.7570    8.8750 C   0  0  0  0  0  0  0  0  0  0  0  0
   26.8540  -21.5380    7.5890 N   0  0  0  0  0  0  0  0  0  0  0  0
   26.1180  -21.1420    8.6730 C   0  0  0  0  0  0  0  0  0  0  0  0
   25.7230  -19.1010    9.9420 C   0  0  0  0  0  0  0  0  0  0  0  0
   25.2910  -21.9050    9.5460 C   0  0  0  0  0  0  0  0  0  0  0  0
   24.9030  -19.8110   10.7590 C   0  0  0  0  0  0  0  0  0  0  0  0
   24.6820  -21.2040   10.5660 C   0  0  0  0  0  0  0  0  0  0  0  0
   30.5290  -15.9830    7.4600 N   0  0  0  0  0  0  0  0  0  0  0  0
   33.1920  -13.7470    6.8340 O   0  0  0  0  0  0  0  0  0  0  0  0
   25.2220  -11.9560    8.9350 Cl  0  0  0  0  0  0  0  0  0  0  0  0
   27.9190  -11.6250    8.3480 C   0  0  0  0  0  0  0  0  0  0  0  0
   27.1670  -13.7830    9.2720 C   0  0  0  0  0  0  0  0  0  0  0  0
   25.9780  -14.8610    9.8720 Cl  0  0  0  0  0  0  0  0  0  0  0  0
   29.1900  -12.0600    8.2760 C   0  0  0  0  0  0  0  0  0  0  0  0
   28.5410  -14.2390    9.1940 C   0  0  0  0  0  0  0  0  0  0  0  0
   30.9090  -13.8880    8.5500 C   0  0  0  0  0  0  0  0  0  0  0  0
   32.4650  -14.7500    6.7960 C   0  0  0  0  0  0  0  0  0  0  0  0
   26.8570  -12.4980    8.8650 C   0  0  0  0  0  0  0  0  0  0  0  0
   29.5100  -13.4070    8.7130 C   0  0  0  0  0  0  0  0  0  0  0  0
   31.0970  -14.7520    7.2940 C   0  0  1  0  0  0  0  0  0  0  0  0
   32.9870  -15.8820    6.3220 N   0  0  0  0  0  0  0  0  0  0  0  0
   34.4200  -15.9660    5.9050 C   0  0  2  0  0  0  0  0  0  0  0  0
   34.8260  -14.9500    4.8490 C   0  0  0  0  0  0  0  0  0  0  0  0
   34.1090  -14.7430    3.8620 O   0  0  0  0  0  0  0  0  0  0  0  0
   34.6890  -17.3170    5.3830 C   0  0  0  0  0  0  0  0  0  0  0  0
   35.9880  -14.3410    5.0380 N   0  0  0  0  0  0  0  0  0  0  0  0
   36.5490  -13.3940    4.0470 C   0  0  2  0  0  0  0  0  0  0  0  0
   37.2490  -14.1090    2.9170 C   0  0  0  0  0  0  0  0  0  0  0  0
   37.7720  -15.2020    3.1080 O   0  0  0  0  0  0  0  0  0  0  0  0
   37.5410  -12.4200    4.6930 C   0  0  0  0  0  0  0  0  0  0  0  0
   36.9840  -11.4450    5.7150 C   0  0  0  0  0  0  0  0  0  0  0  0
   38.1010  -10.4720    6.0190 C   0  0  0  0  0  0  0  0  0  0  0  0
   35.7660  -10.7150    5.1920 C   0  0  0  0  0  0  0  0  0  0  0  0
   37.3160  -13.4560    1.7690 N   0  0  0  0  0  0  0  0  0  0  0  0
   29.5198  -17.7302   25.3097 H   0  0  0  0  0  0  0  0  0  0  0  0
   31.4466  -19.0109   26.1845 H   0  0  0  0  0  0  0  0  0  0  0  0
   30.0205  -18.4395   30.2030 H   0  0  0  0  0  0  0  0  0  0  0  0
   27.6883  -14.2468   25.4767 H   0  0  0  0  0  0  0  0  0  0  0  0
   27.4766  -13.7071   23.0341 H   0  0  0  0  0  0  0  0  0  0  0  0
   26.8124  -17.8919   22.2659 H   0  0  0  0  0  0  0  0  0  0  0  0
   23.6089  -14.2139   27.9186 H   0  0  0  0  0  0  0  0  0  0  0  0
   25.2241  -15.1122   26.2582 H   0  0  0  0  0  0  0  0  0  0  0  0
   25.9301  -15.9238   31.0891 H   0  0  0  0  0  0  0  0  0  0  0  0
   27.7893  -15.2201   20.6435 H   0  0  0  0  0  0  0  0  0  0  0  0
   24.8148  -16.5139   22.0940 H   0  0  0  0  0  0  0  0  0  0  0  0
   23.7547  -16.8061   19.2933 H   0  0  0  0  0  0  0  0  0  0  0  0
   22.7474  -16.1664   20.6359 H   0  0  0  0  0  0  0  0  0  0  0  0
   22.9426  -18.3284   21.8199 H   0  0  0  0  0  0  0  0  0  0  0  0
   23.9652  -18.9694   20.4895 H   0  0  0  0  0  0  0  0  0  0  0  0
   21.7295  -17.9182   19.1740 H   0  0  0  0  0  0  0  0  0  0  0  0
   21.0430  -18.6672   20.6554 H   0  0  0  0  0  0  0  0  0  0  0  0
   22.5007  -20.7029   20.0657 H   0  0  0  0  0  0  0  0  0  0  0  0
   22.6720  -19.9406   18.4482 H   0  0  0  0  0  0  0  0  0  0  0  0
   23.0705  -14.0589   30.0915 H   0  0  0  0  0  0  0  0  0  0  0  0
   20.2029  -19.9536   18.1725 H   0  0  0  0  0  0  0  0  0  0  0  0
   20.0199  -20.6950   19.7984 H   0  0  0  0  0  0  0  0  0  0  0  0
   19.8819  -21.3239   16.5933 H   0  0  0  0  0  0  0  0  0  0  0  0
   20.6979  -24.1410   17.0442 H   0  0  0  0  0  0  0  0  0  0  0  0
   18.4738  -23.6674   16.0425 H   0  0  0  0  0  0  0  0  0  0  0  0
   19.5156  -24.6193   14.9311 H   0  0  0  0  0  0  0  0  0  0  0  0
   22.8880  -22.3650   16.8866 H   0  0  0  0  0  0  0  0  0  0  0  0
   24.3782  -23.4386   14.6120 H   0  0  0  0  0  0  0  0  0  0  0  0
   23.3202  -21.4841   13.5114 H   0  0  0  0  0  0  0  0  0  0  0  0
   25.0815  -21.2162   13.7411 H   0  0  0  0  0  0  0  0  0  0  0  0
   25.8758  -19.5902   15.4717 H   0  0  0  0  0  0  0  0  0  0  0  0
   21.6874  -20.1654   14.7108 H   0  0  0  0  0  0  0  0  0  0  0  0
   25.3813  -17.5776   16.7018 H   0  0  0  0  0  0  0  0  0  0  0  0
   21.1770  -18.0945   15.9366 H   0  0  0  0  0  0  0  0  0  0  0  0
   23.0464  -16.7839   16.9224 H   0  0  0  0  0  0  0  0  0  0  0  0
   26.6674  -22.7629   14.8577 H   0  0  0  0  0  0  0  0  0  0  0  0
   27.3576  -22.1537   17.7019 H   0  0  0  0  0  0  0  0  0  0  0  0
   29.5025  -23.2528   17.2964 H   0  0  0  0  0  0  0  0  0  0  0  0
   29.8172  -24.1912   15.1874 H   0  0  0  0  0  0  0  0  0  0  0  0
   28.7287  -25.5637   16.8812 H   0  0  0  0  0  0  0  0  0  0  0  0
   27.1723  -24.9326   16.2441 H   0  0  0  0  0  0  0  0  0  0  0  0
   27.6022  -24.6858   17.9707 H   0  0  0  0  0  0  0  0  0  0  0  0
   29.5790  -21.1072   17.9705 H   0  0  0  0  0  0  0  0  0  0  0  0
   29.7092  -18.6594   16.5051 H   0  0  0  0  0  0  0  0  0  0  0  0
   31.8866  -18.3175   17.6511 H   0  0  0  0  0  0  0  0  0  0  0  0
   31.8473  -20.0214   18.2183 H   0  0  0  0  0  0  0  0  0  0  0  0
   30.6026  -18.8570   18.7855 H   0  0  0  0  0  0  0  0  0  0  0  0
   31.3404  -21.8022   16.0705 H   0  0  0  0  0  0  0  0  0  0  0  0
   33.1549  -20.8081   14.0609 H   0  0  0  0  0  0  0  0  0  0  0  0
   33.2945  -23.2798   13.4171 H   0  0  0  0  0  0  0  0  0  0  0  0
   32.1962  -23.5744   14.8076 H   0  0  0  0  0  0  0  0  0  0  0  0
   29.7859  -22.0773   13.9221 H   0  0  0  0  0  0  0  0  0  0  0  0
   29.5369  -22.2311   11.0976 H   0  0  0  0  0  0  0  0  0  0  0  0
   27.1065  -21.5654   11.5166 H   0  0  0  0  0  0  0  0  0  0  0  0
   27.5348  -21.4140   13.2545 H   0  0  0  0  0  0  0  0  0  0  0  0
   29.1033  -19.4242   13.3619 H   0  0  0  0  0  0  0  0  0  0  0  0
   28.3983  -17.5183   11.3648 H   0  0  0  0  0  0  0  0  0  0  0  0
   29.1950  -15.7927   12.9986 H   0  0  0  0  0  0  0  0  0  0  0  0
   29.8937  -17.1059   14.0056 H   0  0  0  0  0  0  0  0  0  0  0  0
   27.6754  -18.0103   14.4620 H   0  0  0  0  0  0  0  0  0  0  0  0
   26.7982  -16.0226   15.7422 H   0  0  0  0  0  0  0  0  0  0  0  0
   27.8467  -14.9453   14.7591 H   0  0  0  0  0  0  0  0  0  0  0  0
   28.5855  -16.1564   15.8610 H   0  0  0  0  0  0  0  0  0  0  0  0
   26.5479  -17.5245   12.3202 H   0  0  0  0  0  0  0  0  0  0  0  0
   26.5840  -15.7681   12.6946 H   0  0  0  0  0  0  0  0  0  0  0  0
   25.6110  -16.8836   13.7123 H   0  0  0  0  0  0  0  0  0  0  0  0
   31.6083  -18.4644   12.6726 H   0  0  0  0  0  0  0  0  0  0  0  0
   33.0942  -16.6018   11.1062 H   0  0  0  0  0  0  0  0  0  0  0  0
   34.9807  -18.2791   11.2784 H   0  0  0  0  0  0  0  0  0  0  0  0
   33.8235  -19.4021   12.0698 H   0  0  0  0  0  0  0  0  0  0  0  0
   34.9711  -18.4216   13.8477 H   0  0  0  0  0  0  0  0  0  0  0  0
   33.4242  -17.5121   13.7651 H   0  0  0  0  0  0  0  0  0  0  0  0
   31.9381  -19.9208   10.2677 H   0  0  0  0  0  0  0  0  0  0  0  0
   33.2025  -20.0050    7.7098 H   0  0  0  0  0  0  0  0  0  0  0  0
   30.6368  -21.3313    8.7115 H   0  0  0  0  0  0  0  0  0  0  0  0
   32.3033  -21.9827    8.8705 H   0  0  0  0  0  0  0  0  0  0  0  0
   32.5137  -22.1723    6.4689 H   0  0  0  0  0  0  0  0  0  0  0  0
   30.9261  -21.3671    6.2282 H   0  0  0  0  0  0  0  0  0  0  0  0
   29.9046  -18.9308    8.6958 H   0  0  0  0  0  0  0  0  0  0  0  0
   29.0734  -18.5295    5.9755 H   0  0  0  0  0  0  0  0  0  0  0  0
   27.0935  -17.3648    6.9930 H   0  0  0  0  0  0  0  0  0  0  0  0
   27.8930  -17.4475    8.5994 H   0  0  0  0  0  0  0  0  0  0  0  0
   28.1672  -20.4604    6.2102 H   0  0  0  0  0  0  0  0  0  0  0  0
   26.9054  -22.4970    7.2168 H   0  0  0  0  0  0  0  0  0  0  0  0
   25.8829  -18.0421   10.1102 H   0  0  0  0  0  0  0  0  0  0  0  0
   25.1488  -22.9718    9.4168 H   0  0  0  0  0  0  0  0  0  0  0  0
   24.4047  -19.3049   11.5779 H   0  0  0  0  0  0  0  0  0  0  0  0
   24.0155  -21.7293   11.2405 H   0  0  0  0  0  0  0  0  0  0  0  0
   30.7546  -16.4843    8.2953 H   0  0  0  0  0  0  0  0  0  0  0  0
   27.6763  -10.6203    8.0212 H   0  0  0  0  0  0  0  0  0  0  0  0
   29.9691  -11.4099    7.8947 H   0  0  0  0  0  0  0  0  0  0  0  0
   28.7987  -15.2409    9.5178 H   0  0  0  0  0  0  0  0  0  0  0  0
   31.1804  -14.4862    9.4323 H   0  0  0  0  0  0  0  0  0  0  0  0
   31.5751  -13.0154    8.4796 H   0  0  0  0  0  0  0  0  0  0  0  0
   30.5079  -14.2641    6.5035 H   0  0  0  0  0  0  0  0  0  0  0  0
   32.4068  -16.6927    6.2438 H   0  0  0  0  0  0  0  0  0  0  0  0
   35.0415  -15.7955    6.7964 H   0  0  0  0  0  0  0  0  0  0  0  0
   35.7422  -17.3875    5.0736 H   0  0  0  0  0  0  0  0  0  0  0  0
   34.0388  -17.5119    4.5174 H   0  0  0  0  0  0  0  0  0  0  0  0
   34.4870  -18.0604    6.1682 H   0  0  0  0  0  0  0  0  0  0  0  0
   36.5018  -14.5267    5.8756 H   0  0  0  0  0  0  0  0  0  0  0  0
   35.7143  -12.8137    3.6269 H   0  0  0  0  0  0  0  0  0  0  0  0
   37.9990  -11.8291    3.8861 H   0  0  0  0  0  0  0  0  0  0  0  0
   38.3157  -13.0191    5.1939 H   0  0  0  0  0  0  0  0  0  0  0  0
   36.7036  -11.9888    6.6291 H   0  0  0  0  0  0  0  0  0  0  0  0
   37.7545   -9.7357    6.7591 H   0  0  0  0  0  0  0  0  0  0  0  0
   38.3963   -9.9525    5.0955 H   0  0  0  0  0  0  0  0  0  0  0  0
   38.9647  -11.0200    6.4236 H   0  0  0  0  0  0  0  0  0  0  0  0
   34.9675  -11.4407    4.9779 H   0  0  0  0  0  0  0  0  0  0  0  0
   36.0292  -10.1767    4.2696 H   0  0  0  0  0  0  0  0  0  0  0  0
   35.4159   -9.9971    5.9484 H   0  0  0  0  0  0  0  0  0  0  0  0
   37.7670  -13.8751    0.9810 H   0  0  0  0  0  0  0  0  0  0  0  0
   36.9157  -12.5431    1.6889 H   0  0  0  0  0  0  0  0  0  0  0  0
  1  2  2  0  0  0  0
  1151  1  0  0  0  0
  2  3  1  0  0  0  0
  2152  1  0  0  0  0
  3 31  2  0  0  0  0
  4  3  1  0  0  0  0
  4153  1  0  0  0  0
  5 18  1  0  0  0  0
  6  5  2  0  0  0  0
  6154  1  0  0  0  0
  7  6  1  0  0  0  0
  7155  1  0  0  0  0
  8  7  2  0  0  0  0
  8  9  1  0  0  0  0
  9 10  2  0  0  0  0
  9156  1  0  0  0  0
 10  5  1  0  0  0  0
 10 11  1  0  0  0  0
 11 22  1  0  0  0  0
 11 23  2  0  0  0  0
 12 17  1  0  0  0  0
 12157  1  0  0  0  0
 13 12  2  0  0  0  0
 13158  1  0  0  0  0
 14 13  1  0  0  0  0
 14 15  2  0  0  0  0
 15 16  1  0  0  0  0
 15 21  1  0  0  0  0
 16 17  2  0  0  0  0
 16159  1  0  0  0  0
 17 32  1  0  0  0  0
 18 14  1  0  0  0  0
 18 19  2  0  0  0  0
 19  1  1  0  0  0  0
 19 20  1  0  0  0  0
 20  4  2  0  0  0  0
 20 21  1  0  0  0  0
 24  8  1  0  0  0  0
 24160  1  0  0  0  0
 25 24  1  0  0  0  0
 25 34  2  0  0  0  0
 26 25  1  0  0  0  0
 26161  1  0  0  0  0
 27 26  1  0  0  0  0
 27162  1  0  0  0  0
 27163  1  0  0  0  0
 28 27  1  0  0  0  0
 28164  1  0  0  0  0
 28165  1  0  0  0  0
 29 28  1  0  0  0  0
 29166  1  0  0  0  0
 29167  1  0  0  0  0
 30 29  1  0  0  0  0
 30168  1  0  0  0  0
 30169  1  0  0  0  0
 32170  1  0  0  0  0
 33 30  1  0  0  0  0
 33171  1  0  0  0  0
 33172  1  0  0  0  0
 35 33  1  0  0  0  0
 35 36  2  0  0  0  0
 37 35  1  0  0  0  0
 37173  1  0  0  0  0
 38 37  1  0  0  0  0
 38 41  1  0  0  0  0
 38174  1  1  0  0  0
 39 38  1  0  0  0  0
 39 40  2  0  0  0  0
 41 42  1  0  0  0  0
 41175  1  0  0  0  0
 41176  1  0  0  0  0
 42 43  1  0  0  0  0
 42 44  2  0  0  0  0
 45 39  1  0  0  0  0
 45177  1  0  0  0  0
 46 45  1  0  0  0  0
 46 49  1  0  0  0  0
 46178  1  6  0  0  0
 47 46  1  0  0  0  0
 47 48  2  0  0  0  0
 49 50  1  0  0  0  0
 49179  1  0  0  0  0
 49180  1  0  0  0  0
 50 51  2  0  0  0  0
 50 52  1  0  0  0  0
 51 53  1  0  0  0  0
 51181  1  0  0  0  0
 52 54  2  0  0  0  0
 52182  1  0  0  0  0
 53 55  2  0  0  0  0
 53183  1  0  0  0  0
 54 55  1  0  0  0  0
 54184  1  0  0  0  0
 55185  1  0  0  0  0
 56 47  1  0  0  0  0
 56186  1  0  0  0  0
 57 56  1  0  0  0  0
 57 60  1  0  0  0  0
 57187  1  1  0  0  0
 58 57  1  0  0  0  0
 58 59  2  0  0  0  0
 60 61  1  0  0  0  0
 60 62  1  0  0  0  0
 60188  1  1  0  0  0
 61189  1  0  0  0  0
 62190  1  0  0  0  0
 62191  1  0  0  0  0
 62192  1  0  0  0  0
 63 58  1  0  0  0  0
 63193  1  0  0  0  0
 64 63  1  0  0  0  0
 64 67  1  0  0  0  0
 64194  1  6  0  0  0
 65 64  1  0  0  0  0
 65 66  2  0  0  0  0
 67195  1  0  0  0  0
 67196  1  0  0  0  0
 67197  1  0  0  0  0
 68 65  1  0  0  0  0
 68198  1  0  0  0  0
 69 68  1  0  0  0  0
 69 72  1  0  0  0  0
 69199  1  6  0  0  0
 70 69  1  0  0  0  0
 70 71  2  0  0  0  0
 72 73  1  0  0  0  0
 72200  1  0  0  0  0
 72201  1  0  0  0  0
 73 74  1  0  0  0  0
 73 75  2  0  0  0  0
 76 70  1  0  0  0  0
 76202  1  0  0  0  0
 77 76  1  0  0  0  0
 77 80  1  0  0  0  0
 77203  1  6  0  0  0
 78 77  1  0  0  0  0
 78 79  2  0  0  0  0
 80 81  1  0  0  0  0
 80204  1  0  0  0  0
 80205  1  0  0  0  0
 81 82  1  0  0  0  0
 81 83  2  0  0  0  0
 84 78  1  0  0  0  0
 84206  1  0  0  0  0
 85 84  1  0  0  0  0
 85 88  1  0  0  0  0
 85207  1  6  0  0  0
 86 85  1  0  0  0  0
 86 87  2  0  0  0  0
 88 89  1  0  0  0  0
 88208  1  0  0  0  0
 88209  1  0  0  0  0
 89 90  1  0  0  0  0
 89 91  1  0  0  0  0
 89210  1  0  0  0  0
 90211  1  0  0  0  0
 90212  1  0  0  0  0
 90213  1  0  0  0  0
 91214  1  0  0  0  0
 91215  1  0  0  0  0
 91216  1  0  0  0  0
 92 86  1  0  0  0  0
 92217  1  0  0  0  0
 93 92  1  0  0  0  0
 93 96  1  0  0  0  0
 93218  1  6  0  0  0
 94 93  1  0  0  0  0
 94 95  2  0  0  0  0
 96 97  1  0  0  0  0
 96219  1  0  0  0  0
 96220  1  0  0  0  0
 97 98  1  0  0  0  0
 97221  1  0  0  0  0
 97222  1  0  0  0  0
 98 99  1  0  0  0  0
 98100  2  0  0  0  0
101 94  1  0  0  0  0
101223  1  0  0  0  0
102101  1  0  0  0  0
102105  1  0  0  0  0
102224  1  6  0  0  0
103102  1  0  0  0  0
103104  2  0  0  0  0
105106  1  0  0  0  0
105225  1  0  0  0  0
105226  1  0  0  0  0
106107  1  0  0  0  0
106227  1  0  0  0  0
106228  1  0  0  0  0
107108  1  0  0  0  0
107109  2  0  0  0  0
110103  1  0  0  0  0
110229  1  0  0  0  0
111110  1  0  0  0  0
111114  1  0  0  0  0
111230  1  6  0  0  0
112111  1  0  0  0  0
112113  2  0  0  0  0
114115  1  0  0  0  0
114231  1  0  0  0  0
114232  1  0  0  0  0
115116  2  0  0  0  0
115117  1  0  0  0  0
116118  1  0  0  0  0
116233  1  0  0  0  0
117119  2  0  0  0  0
117120  1  0  0  0  0
118234  1  0  0  0  0
119118  1  0  0  0  0
119121  1  0  0  0  0
120122  2  0  0  0  0
120235  1  0  0  0  0
121123  2  0  0  0  0
121236  1  0  0  0  0
122123  1  0  0  0  0
122237  1  0  0  0  0
123238  1  0  0  0  0
124112  1  0  0  0  0
124239  1  0  0  0  0
127134  1  0  0  0  0
127240  1  0  0  0  0
128129  1  0  0  0  0
128134  2  0  0  0  0
130127  2  0  0  0  0
130241  1  0  0  0  0
131128  1  0  0  0  0
131242  1  0  0  0  0
132135  1  0  0  0  0
132243  1  0  0  0  0
132244  1  0  0  0  0
133125  2  0  0  0  0
133136  1  0  0  0  0
133137  1  0  0  0  0
134126  1  0  0  0  0
135130  1  0  0  0  0
135131  2  0  0  0  0
136124  1  0  0  0  0
136132  1  0  0  0  0
136245  1  6  0  0  0
137138  1  0  0  0  0
137246  1  0  0  0  0
138139  1  0  0  0  0
138141  1  0  0  0  0
138247  1  1  0  0  0
139140  2  0  0  0  0
139142  1  0  0  0  0
141248  1  0  0  0  0
141249  1  0  0  0  0
141250  1  0  0  0  0
142143  1  0  0  0  0
142251  1  0  0  0  0
143144  1  0  0  0  0
143146  1  0  0  0  0
143252  1  6  0  0  0
144145  2  0  0  0  0
144150  1  0  0  0  0
146147  1  0  0  0  0
146253  1  0  0  0  0
146254  1  0  0  0  0
147148  1  0  0  0  0
147149  1  0  0  0  0
147255  1  0  0  0  0
148256  1  0  0  0  0
148257  1  0  0  0  0
148258  1  0  0  0  0
149259  1  0  0  0  0
149260  1  0  0  0  0
149261  1  0  0  0  0
150262  1  0  0  0  0
150263  1  0  0  0  0
M  CHG  6  22  -1  43  -1  74  -1  82  -1  99  -1 108  -1
M  END
