4nb6_ligand
 OpenBabel08222323353D

 43 44  0  0  0  0  0  0  0  0999 V2000
   29.3380    8.9860    2.7400 O   0  0  0  0  0  0  0  0  0  0  0  0
   30.1350   10.1410    2.9970 S   0  0  0  0  0  0  0  0  0  0  0  0
   29.8470   10.9870    4.1070 O   0  0  0  0  0  0  0  0  0  0  0  0
   29.9690   11.1840    1.5720 C   0  0  0  0  0  0  0  0  0  0  0  0
   29.3210   10.7170    0.4350 C   0  0  0  0  0  0  0  0  0  0  0  0
   29.2000   11.5310   -0.6810 C   0  0  0  0  0  0  0  0  0  0  0  0
   29.7210   12.8160   -0.6710 C   0  0  0  0  0  0  0  0  0  0  0  0
   30.3660   13.2890    0.4610 C   0  0  0  0  0  0  0  0  0  0  0  0
   30.4840   12.4760    1.5780 C   0  0  0  0  0  0  0  0  0  0  0  0
   31.7420    9.6370    3.1100 N   0  0  0  0  0  0  0  0  0  0  0  0
   31.9860    8.6820    2.0230 C   0  0  0  0  0  0  0  0  0  0  0  0
   32.3200    7.3300    2.6280 C   0  0  0  0  0  0  0  0  0  0  0  0
   33.3370    7.5210    3.5680 F   0  0  0  0  0  0  0  0  0  0  0  0
   31.1810    6.8070    3.2460 F   0  0  0  0  0  0  0  0  0  0  0  0
   32.7370    6.4660    1.6110 F   0  0  0  0  0  0  0  0  0  0  0  0
   32.6660   10.6920    3.2480 C   0  0  0  0  0  0  0  0  0  0  0  0
   33.5930   10.9910    2.2450 C   0  0  0  0  0  0  0  0  0  0  0  0
   34.4820   12.0460    2.3860 C   0  0  0  0  0  0  0  0  0  0  0  0
   32.6590   11.4850    4.3930 C   0  0  0  0  0  0  0  0  0  0  0  0
   33.5480   12.5370    4.5320 C   0  0  0  0  0  0  0  0  0  0  0  0
   34.4720   12.8280    3.5270 C   0  0  0  0  0  0  0  0  0  0  0  0
   35.4610   13.9760    3.6140 C   0  0  0  0  0  0  0  0  0  0  0  0
   34.7410   15.3300    3.5990 C   0  0  0  0  0  0  0  0  0  0  0  0
   35.7230   16.3190    3.5590 F   0  0  0  0  0  0  0  0  0  0  0  0
   33.9080   15.4590    2.4810 F   0  0  0  0  0  0  0  0  0  0  0  0
   33.9810   15.4960    4.7610 F   0  0  0  0  0  0  0  0  0  0  0  0
   36.3330   13.9330    2.4800 O   0  0  0  0  0  0  0  0  0  0  0  0
   36.3320   13.9490    4.8690 C   0  0  0  0  0  0  0  0  0  0  0  0
   36.7800   12.6490    5.1260 F   0  0  0  0  0  0  0  0  0  0  0  0
   37.4230   14.7920    4.6460 F   0  0  0  0  0  0  0  0  0  0  0  0
   35.6020   14.4450    5.9530 F   0  0  0  0  0  0  0  0  0  0  0  0
   28.9093    9.7143    0.4204 H   0  0  0  0  0  0  0  0  0  0  0  0
   28.6954   11.1608   -1.5661 H   0  0  0  0  0  0  0  0  0  0  0  0
   29.6241   13.4487   -1.5458 H   0  0  0  0  0  0  0  0  0  0  0  0
   30.7771   14.2919    0.4730 H   0  0  0  0  0  0  0  0  0  0  0  0
   30.9825   12.8510    2.4645 H   0  0  0  0  0  0  0  0  0  0  0  0
   32.8282    9.0299    1.4068 H   0  0  0  0  0  0  0  0  0  0  0  0
   31.0853    8.5952    1.3975 H   0  0  0  0  0  0  0  0  0  0  0  0
   33.6172   10.3892    1.3437 H   0  0  0  0  0  0  0  0  0  0  0  0
   35.1913   12.2598    1.5947 H   0  0  0  0  0  0  0  0  0  0  0  0
   31.9488   11.2759    5.1848 H   0  0  0  0  0  0  0  0  0  0  0  0
   33.5263   13.1416    5.4315 H   0  0  0  0  0  0  0  0  0  0  0  0
   36.7923   13.1014    2.4664 H   0  0  0  0  0  0  0  0  0  0  0  0
  1  2  2  0  0  0  0
  2  3  2  0  0  0  0
  2  4  1  0  0  0  0
  2 10  1  0  0  0  0
  4  5  2  0  0  0  0
  4  9  1  0  0  0  0
  5  6  1  0  0  0  0
  5 32  1  0  0  0  0
  6  7  2  0  0  0  0
  6 33  1  0  0  0  0
  7  8  1  0  0  0  0
  7 34  1  0  0  0  0
  8  9  2  0  0  0  0
  8 35  1  0  0  0  0
  9 36  1  0  0  0  0
 10 11  1  0  0  0  0
 10 16  1  0  0  0  0
 11 12  1  0  0  0  0
 11 37  1  0  0  0  0
 11 38  1  0  0  0  0
 12 13  1  0  0  0  0
 12 14  1  0  0  0  0
 12 15  1  0  0  0  0
 16 17  2  0  0  0  0
 16 19  1  0  0  0  0
 17 18  1  0  0  0  0
 17 39  1  0  0  0  0
 18 21  2  0  0  0  0
 18 40  1  0  0  0  0
 19 20  2  0  0  0  0
 19 41  1  0  0  0  0
 20 21  1  0  0  0  0
 20 42  1  0  0  0  0
 21 22  1  0  0  0  0
 22 23  1  0  0  0  0
 22 27  1  0  0  0  0
 22 28  1  0  0  0  0
 23 24  1  0  0  0  0
 23 25  1  0  0  0  0
 23 26  1  0  0  0  0
 27 43  1  0  0  0  0
 28 29  1  0  0  0  0
 28 30  1  0  0  0  0
 28 31  1  0  0  0  0
M  END
