4ng9_ligand
 OpenBabel08222323353D

 73 76  0  0  1  0  0  0  0  0999 V2000
    5.1270   36.2720   24.8080 C   0  0  0  0  0  0  0  0  0  0  0  0
    5.7750   37.1000   25.7570 C   0  0  0  0  0  0  0  0  0  0  0  0
    7.1530   38.2490   24.1430 C   0  0  0  0  0  0  0  0  0  0  0  0
    3.7870   35.9300   25.0210 C   0  0  0  0  0  0  0  0  0  0  0  0
    3.0630   36.4330   26.1760 C   0  0  0  0  0  0  0  0  0  0  0  0
    3.7490   37.2520   27.1230 C   0  0  0  0  0  0  0  0  0  0  0  0
    5.1000   37.5730   26.9150 C   0  0  0  0  0  0  0  0  0  0  0  0
    9.6220   33.6090   27.2470 C   0  0  0  0  0  0  0  0  0  0  0  0
    2.8490   38.6080   21.0260 C   0  0  0  0  0  0  0  0  0  0  0  0
    0.7740   36.5460   27.2120 C   0  0  0  0  0  0  0  0  0  0  0  0
    2.7950   38.8070   22.4270 C   0  0  0  0  0  0  0  0  0  0  0  0
    6.5840   39.5000   24.1610 N   0  0  0  0  0  0  0  0  0  0  0  0
    9.6950   33.5190   31.0160 N   0  0  0  0  0  0  0  0  0  0  0  0
    9.0770   34.7000   31.2740 C   0  0  0  0  0  0  0  0  0  0  0  0
    8.5530   35.5480   30.3010 C   0  0  0  0  0  0  0  0  0  0  0  0
    8.7080   35.1790   28.9300 C   0  0  0  0  0  0  0  0  0  0  0  0
    9.3890   33.9460   28.6050 C   0  0  0  0  0  0  0  0  0  0  0  0
    9.8290   33.1210   29.7130 C   0  0  0  0  0  0  0  0  0  0  0  0
    8.2210   36.0290   27.8800 C   0  0  0  0  0  0  0  0  0  0  0  0
    8.4460   35.6370   26.5430 C   0  0  0  0  0  0  0  0  0  0  0  0
    9.1770   34.4130   26.2510 C   0  0  0  0  0  0  0  0  0  0  0  0
   10.3420   31.8370   29.5270 N   0  0  0  0  0  0  0  0  0  0  0  0
    8.0320   36.3440   25.4060 N   0  0  0  0  0  0  0  0  0  0  0  0
    7.1950   37.5330   25.4940 C   0  0  2  0  0  0  0  0  0  0  0  0
    7.6240   37.7380   23.1190 O   0  0  0  0  0  0  0  0  0  0  0  0
    1.7090   36.0400   26.2310 O   0  0  0  0  0  0  0  0  0  0  0  0
    3.1100   35.0230   24.2330 O   0  0  0  0  0  0  0  0  0  0  0  0
    3.5860   34.7810   22.9200 C   0  0  0  0  0  0  0  0  0  0  0  0
    2.8830   33.6710   22.4360 C   0  0  0  0  0  0  0  0  0  0  0  0
   -0.5940   36.4200   26.6050 C   0  0  0  0  0  0  0  0  0  0  0  0
    0.9200   35.7800   28.5000 C   0  0  0  0  0  0  0  0  0  0  0  0
    6.3650   40.2760   22.9610 C   0  0  0  0  0  0  0  0  0  0  0  0
    5.1470   39.6200   22.2970 C   0  0  0  0  0  0  0  0  0  0  0  0
    3.9790   39.3070   23.0470 C   0  0  0  0  0  0  0  0  0  0  0  0
    4.0020   38.8870   20.2820 C   0  0  0  0  0  0  0  0  0  0  0  0
    5.1510   39.3900   20.9180 C   0  0  0  0  0  0  0  0  0  0  0  0
    1.3440   38.5330   23.2980 S   0  0  0  0  0  0  0  0  0  0  0  0
    1.5810   38.7720   24.6900 O   0  0  0  0  0  0  0  0  0  0  0  0
    0.3170   39.2620   22.6290 O   0  0  0  0  0  0  0  0  0  0  0  0
    0.9500   36.9650   23.0940 N   0  0  0  0  0  0  0  0  0  0  0  0
    5.6581   35.9107   23.9348 H   0  0  0  0  0  0  0  0  0  0  0  0
    3.2293   37.6243   27.9985 H   0  0  0  0  0  0  0  0  0  0  0  0
    5.6290   38.1825   27.6387 H   0  0  0  0  0  0  0  0  0  0  0  0
   10.1608   32.7003   27.0038 H   0  0  0  0  0  0  0  0  0  0  0  0
    1.9719   38.2285   20.5144 H   0  0  0  0  0  0  0  0  0  0  0  0
    0.9828   37.6073   27.4121 H   0  0  0  0  0  0  0  0  0  0  0  0
    6.3102   39.8895   25.0404 H   0  0  0  0  0  0  0  0  0  0  0  0
    8.9848   35.0045   32.3103 H   0  0  0  0  0  0  0  0  0  0  0  0
    8.0415   36.4631   30.5769 H   0  0  0  0  0  0  0  0  0  0  0  0
    7.6940   36.9483   28.1085 H   0  0  0  0  0  0  0  0  0  0  0  0
    9.3687   34.1399   25.2196 H   0  0  0  0  0  0  0  0  0  0  0  0
   10.4717   31.4672   28.5745 H   0  0  0  0  0  0  0  0  0  0  0  0
   10.5911   31.2588   30.3422 H   0  0  0  0  0  0  0  0  0  0  0  0
    8.3294   36.0119   24.4774 H   0  0  0  0  0  0  0  0  0  0  0  0
    7.5630   38.2031   26.2849 H   0  0  0  0  0  0  0  0  0  0  0  0
    4.6647   34.5669   22.9411 H   0  0  0  0  0  0  0  0  0  0  0  0
    3.3984   35.6566   22.2812 H   0  0  0  0  0  0  0  0  0  0  0  0
    3.2185   33.4418   21.4138 H   0  0  0  0  0  0  0  0  0  0  0  0
    1.8060   33.8945   22.4270 H   0  0  0  0  0  0  0  0  0  0  0  0
    3.0723   32.8047   23.0869 H   0  0  0  0  0  0  0  0  0  0  0  0
   -1.3462   36.7936   27.3154 H   0  0  0  0  0  0  0  0  0  0  0  0
   -0.7981   35.3634   26.3769 H   0  0  0  0  0  0  0  0  0  0  0  0
   -0.6398   37.0107   25.6782 H   0  0  0  0  0  0  0  0  0  0  0  0
    0.2066   36.1696   29.2411 H   0  0  0  0  0  0  0  0  0  0  0  0
    1.9451   35.8962   28.8815 H   0  0  0  0  0  0  0  0  0  0  0  0
    0.7148   34.7147   28.3184 H   0  0  0  0  0  0  0  0  0  0  0  0
    7.2426   40.2257   22.2997 H   0  0  0  0  0  0  0  0  0  0  0  0
    6.1534   41.3263   23.2102 H   0  0  0  0  0  0  0  0  0  0  0  0
    3.9889   39.4527   24.1211 H   0  0  0  0  0  0  0  0  0  0  0  0
    4.0089   38.7146   19.2118 H   0  0  0  0  0  0  0  0  0  0  0  0
    6.0421   39.5999   20.3375 H   0  0  0  0  0  0  0  0  0  0  0  0
    0.1266   36.5961   23.5253 H   0  0  0  0  0  0  0  0  0  0  0  0
    1.5316   36.3716   22.5375 H   0  0  0  0  0  0  0  0  0  0  0  0
  1  4  1  0  0  0  0
  1 41  1  0  0  0  0
  2  1  2  0  0  0  0
  2  7  1  0  0  0  0
  3 24  1  0  0  0  0
  3 25  2  0  0  0  0
  4  5  2  0  0  0  0
  4 27  1  0  0  0  0
  5 26  1  0  0  0  0
  6  5  1  0  0  0  0
  6 42  1  0  0  0  0
  7  6  2  0  0  0  0
  7 43  1  0  0  0  0
  8 17  2  0  0  0  0
  8 44  1  0  0  0  0
  9 35  1  0  0  0  0
  9 45  1  0  0  0  0
 10 30  1  0  0  0  0
 10 31  1  0  0  0  0
 10 46  1  0  0  0  0
 11  9  2  0  0  0  0
 11 37  1  0  0  0  0
 12  3  1  0  0  0  0
 12 47  1  0  0  0  0
 14 13  1  0  0  0  0
 14 48  1  0  0  0  0
 15 14  2  0  0  0  0
 15 49  1  0  0  0  0
 16 15  1  0  0  0  0
 16 17  1  0  0  0  0
 17 18  1  0  0  0  0
 18 13  2  0  0  0  0
 18 22  1  0  0  0  0
 19 16  2  0  0  0  0
 19 50  1  0  0  0  0
 20 19  1  0  0  0  0
 20 21  2  0  0  0  0
 21  8  1  0  0  0  0
 21 51  1  0  0  0  0
 22 52  1  0  0  0  0
 22 53  1  0  0  0  0
 23 20  1  0  0  0  0
 23 54  1  0  0  0  0
 24  2  1  0  0  0  0
 24 23  1  0  0  0  0
 24 55  1  1  0  0  0
 26 10  1  0  0  0  0
 27 28  1  0  0  0  0
 28 29  1  0  0  0  0
 28 56  1  0  0  0  0
 28 57  1  0  0  0  0
 29 58  1  0  0  0  0
 29 59  1  0  0  0  0
 29 60  1  0  0  0  0
 30 61  1  0  0  0  0
 30 62  1  0  0  0  0
 30 63  1  0  0  0  0
 31 64  1  0  0  0  0
 31 65  1  0  0  0  0
 31 66  1  0  0  0  0
 32 12  1  0  0  0  0
 32 67  1  0  0  0  0
 32 68  1  0  0  0  0
 33 32  1  0  0  0  0
 33 34  2  0  0  0  0
 33 36  1  0  0  0  0
 34 11  1  0  0  0  0
 34 69  1  0  0  0  0
 35 36  2  0  0  0  0
 35 70  1  0  0  0  0
 36 71  1  0  0  0  0
 37 38  2  0  0  0  0
 37 39  2  0  0  0  0
 37 40  1  0  0  0  0
 40 72  1  0  0  0  0
 40 73  1  0  0  0  0
M  END
