4nga_ligand
 OpenBabel08222323353D

 80 83  0  0  1  0  0  0  0  0999 V2000
    5.8160   36.8360   25.9100 C   0  0  0  0  0  0  0  0  0  0  0  0
    3.7450   35.8240   25.2270 C   0  0  0  0  0  0  0  0  0  0  0  0
    5.1090   36.0750   25.0040 C   0  0  0  0  0  0  0  0  0  0  0  0
    3.0910   36.3570   26.3990 C   0  0  0  0  0  0  0  0  0  0  0  0
    3.8520   37.1380   27.3300 C   0  0  0  0  0  0  0  0  0  0  0  0
    5.1990   37.3620   27.0800 C   0  0  0  0  0  0  0  0  0  0  0  0
    0.9680   36.3570   27.7110 C   0  0  0  0  0  0  0  0  0  0  0  0
    7.2710   37.1470   25.6230 C   0  0  1  0  0  0  0  0  0  0  0  0
    4.8910   39.4530   20.0730 C   0  0  0  0  0  0  0  0  0  0  0  0
    3.7290   34.3110   23.3400 C   0  0  0  0  0  0  0  0  0  0  0  0
    3.7840   38.7770   20.6020 C   0  0  0  0  0  0  0  0  0  0  0  0
    9.0050   34.6030   31.4180 C   0  0  0  0  0  0  0  0  0  0  0  0
    9.6060   33.3790   31.2530 N   0  0  0  0  0  0  0  0  0  0  0  0
    9.7730   32.8930   29.9560 C   0  0  0  0  0  0  0  0  0  0  0  0
    9.3400   33.6240   28.7910 C   0  0  0  0  0  0  0  0  0  0  0  0
    8.7080   34.9020   29.0340 C   0  0  0  0  0  0  0  0  0  0  0  0
    8.5470   35.3820   30.3670 C   0  0  0  0  0  0  0  0  0  0  0  0
    9.5580   33.1740   27.4440 C   0  0  0  0  0  0  0  0  0  0  0  0
    9.1750   33.9680   26.3940 C   0  0  0  0  0  0  0  0  0  0  0  0
    8.5050   35.2450   26.6440 C   0  0  0  0  0  0  0  0  0  0  0  0
    8.2790   35.6910   27.9500 C   0  0  0  0  0  0  0  0  0  0  0  0
    8.1060   35.9540   25.5190 N   0  0  0  0  0  0  0  0  0  0  0  0
    7.4110   37.9610   24.3600 C   0  0  0  0  0  0  0  0  0  0  0  0
    7.8460   37.4940   23.2880 O   0  0  0  0  0  0  0  0  0  0  0  0
    6.9850   39.2880   24.5120 N   0  0  0  0  0  0  0  0  0  0  0  0
    3.0000   35.0520   24.3320 O   0  0  0  0  0  0  0  0  0  0  0  0
    1.7370   36.0310   26.5250 O   0  0  0  0  0  0  0  0  0  0  0  0
   -0.4540   36.3050   27.2790 C   0  0  0  0  0  0  0  0  0  0  0  0
    1.2540   35.4160   28.8580 C   0  0  0  0  0  0  0  0  0  0  0  0
    2.7880   33.4230   22.6840 C   0  0  0  0  0  0  0  0  0  0  0  0
    6.8980   40.1700   23.3470 C   0  0  0  0  0  0  0  0  0  0  0  0
    5.8400   39.7060   22.3180 C   0  0  0  0  0  0  0  0  0  0  0  0
    4.7130   39.0290   22.8380 C   0  0  0  0  0  0  0  0  0  0  0  0
    3.6950   38.5670   22.0040 C   0  0  0  0  0  0  0  0  0  0  0  0
    5.9580   39.9450   20.8850 C   0  0  0  0  0  0  0  0  0  0  0  0
    7.1950   40.7830   20.0890 S   0  0  0  0  0  0  0  0  0  0  0  0
    6.6440   41.3900   18.9310 O   0  0  0  0  0  0  0  0  0  0  0  0
    7.8910   41.6500   20.9650 O   0  0  0  0  0  0  0  0  0  0  0  0
    8.3260   39.5390   19.4700 C   0  0  0  0  0  0  0  0  0  0  0  0
    8.7250   38.4200   20.4080 C   0  0  0  0  0  0  0  0  0  0  0  0
    9.6150   40.1860   19.0320 C   0  0  0  0  0  0  0  0  0  0  0  0
   10.4060   31.6660   29.8300 N   0  0  0  0  0  0  0  0  0  0  0  0
    5.6018   35.6733   24.1260 H   0  0  0  0  0  0  0  0  0  0  0  0
    3.3821   37.5478   28.2167 H   0  0  0  0  0  0  0  0  0  0  0  0
    5.7863   37.9427   27.7821 H   0  0  0  0  0  0  0  0  0  0  0  0
    1.2145   37.3779   28.0382 H   0  0  0  0  0  0  0  0  0  0  0  0
    7.6498   37.7485   26.4624 H   0  0  0  0  0  0  0  0  0  0  0  0
    4.9399   39.6094   19.0015 H   0  0  0  0  0  0  0  0  0  0  0  0
    4.5272   33.7253   23.8194 H   0  0  0  0  0  0  0  0  0  0  0  0
    4.1707   35.0001   22.6051 H   0  0  0  0  0  0  0  0  0  0  0  0
    3.0003   38.4164   19.9456 H   0  0  0  0  0  0  0  0  0  0  0  0
    8.8820   34.9809   32.4265 H   0  0  0  0  0  0  0  0  0  0  0  0
    8.0747   36.3394   30.5551 H   0  0  0  0  0  0  0  0  0  0  0  0
   10.0226   32.2122   27.2590 H   0  0  0  0  0  0  0  0  0  0  0  0
    9.3689   33.6492   25.3762 H   0  0  0  0  0  0  0  0  0  0  0  0
    7.7779   36.6360   28.1261 H   0  0  0  0  0  0  0  0  0  0  0  0
    8.4064   35.6304   24.5884 H   0  0  0  0  0  0  0  0  0  0  0  0
    6.7401   39.6327   25.4182 H   0  0  0  0  0  0  0  0  0  0  0  0
   -1.1055   36.5435   28.1326 H   0  0  0  0  0  0  0  0  0  0  0  0
   -0.6884   35.2957   26.9097 H   0  0  0  0  0  0  0  0  0  0  0  0
   -0.6201   37.0374   26.4752 H   0  0  0  0  0  0  0  0  0  0  0  0
    0.6482   35.7053   29.7294 H   0  0  0  0  0  0  0  0  0  0  0  0
    2.3212   35.4699   29.1192 H   0  0  0  0  0  0  0  0  0  0  0  0
    1.0008   34.3877   28.5606 H   0  0  0  0  0  0  0  0  0  0  0  0
    3.3122   32.8369   21.9148 H   0  0  0  0  0  0  0  0  0  0  0  0
    1.9909   34.0168   22.2127 H   0  0  0  0  0  0  0  0  0  0  0  0
    2.3474   32.7419   23.4270 H   0  0  0  0  0  0  0  0  0  0  0  0
    7.8803   40.1964   22.8527 H   0  0  0  0  0  0  0  0  0  0  0  0
    6.6333   41.1807   23.6910 H   0  0  0  0  0  0  0  0  0  0  0  0
    4.6386   38.8656   23.9070 H   0  0  0  0  0  0  0  0  0  0  0  0
    2.8397   38.0500   22.4239 H   0  0  0  0  0  0  0  0  0  0  0  0
    7.8409   39.0793   18.5963 H   0  0  0  0  0  0  0  0  0  0  0  0
    9.4176   37.7386   19.8922 H   0  0  0  0  0  0  0  0  0  0  0  0
    7.8278   37.8646   20.7188 H   0  0  0  0  0  0  0  0  0  0  0  0
    9.2196   38.8435   21.2946 H   0  0  0  0  0  0  0  0  0  0  0  0
   10.3023   39.4149   18.6539 H   0  0  0  0  0  0  0  0  0  0  0  0
   10.0763   40.7005   19.8878 H   0  0  0  0  0  0  0  0  0  0  0  0
    9.4071   40.9147   18.2346 H   0  0  0  0  0  0  0  0  0  0  0  0
   10.5568   31.2577   28.8965 H   0  0  0  0  0  0  0  0  0  0  0  0
   10.7255   31.1627   30.6699 H   0  0  0  0  0  0  0  0  0  0  0  0
  1  3  2  0  0  0  0
  1  6  1  0  0  0  0
  2  4  2  0  0  0  0
  2 26  1  0  0  0  0
  3  2  1  0  0  0  0
  3 43  1  0  0  0  0
  4 27  1  0  0  0  0
  5  4  1  0  0  0  0
  5 44  1  0  0  0  0
  6  5  2  0  0  0  0
  6 45  1  0  0  0  0
  7 28  1  0  0  0  0
  7 29  1  0  0  0  0
  7 46  1  0  0  0  0
  8  1  1  0  0  0  0
  8 22  1  0  0  0  0
  8 47  1  1  0  0  0
  9 11  2  0  0  0  0
  9 48  1  0  0  0  0
 10 30  1  0  0  0  0
 10 49  1  0  0  0  0
 10 50  1  0  0  0  0
 11 34  1  0  0  0  0
 11 51  1  0  0  0  0
 12 13  2  0  0  0  0
 12 52  1  0  0  0  0
 14 13  1  0  0  0  0
 14 42  1  0  0  0  0
 15 14  2  0  0  0  0
 16 15  1  0  0  0  0
 16 17  2  0  0  0  0
 17 12  1  0  0  0  0
 17 53  1  0  0  0  0
 18 15  1  0  0  0  0
 18 54  1  0  0  0  0
 19 18  2  0  0  0  0
 19 55  1  0  0  0  0
 20 19  1  0  0  0  0
 20 21  2  0  0  0  0
 21 16  1  0  0  0  0
 21 56  1  0  0  0  0
 22 20  1  0  0  0  0
 22 57  1  0  0  0  0
 23  8  1  0  0  0  0
 23 24  2  0  0  0  0
 25 23  1  0  0  0  0
 25 58  1  0  0  0  0
 26 10  1  0  0  0  0
 27  7  1  0  0  0  0
 28 59  1  0  0  0  0
 28 60  1  0  0  0  0
 28 61  1  0  0  0  0
 29 62  1  0  0  0  0
 29 63  1  0  0  0  0
 29 64  1  0  0  0  0
 30 65  1  0  0  0  0
 30 66  1  0  0  0  0
 30 67  1  0  0  0  0
 31 25  1  0  0  0  0
 31 68  1  0  0  0  0
 31 69  1  0  0  0  0
 32 31  1  0  0  0  0
 32 33  1  0  0  0  0
 32 35  2  0  0  0  0
 33 34  2  0  0  0  0
 33 70  1  0  0  0  0
 34 71  1  0  0  0  0
 35  9  1  0  0  0  0
 35 36  1  0  0  0  0
 36 37  2  0  0  0  0
 36 38  2  0  0  0  0
 36 39  1  0  0  0  0
 39 40  1  0  0  0  0
 39 41  1  0  0  0  0
 39 72  1  0  0  0  0
 40 73  1  0  0  0  0
 40 74  1  0  0  0  0
 40 75  1  0  0  0  0
 41 76  1  0  0  0  0
 41 77  1  0  0  0  0
 41 78  1  0  0  0  0
 42 79  1  0  0  0  0
 42 80  1  0  0  0  0
M  END
