4ngs_ligand
 OpenBabel08222323353D

 68 68  0  0  1  0  0  0  0  0999 V2000
  -24.1750  -18.4860  -36.0780 O   0  0  0  0  0  0  0  0  0  0  0  0
  -24.8100  -17.4890  -36.4230 C   0  0  0  0  0  0  0  0  0  0  0  0
  -25.8130  -17.5360  -37.3480 N   0  0  0  0  0  0  0  0  0  0  0  0
  -26.2890  -18.7620  -37.9830 C   0  0  0  0  0  0  0  0  0  0  0  0
  -27.8090  -18.9050  -37.8870 C   0  0  0  0  0  0  0  0  0  0  0  0
  -28.3000  -19.3610  -36.5170 C   0  0  0  0  0  0  0  0  0  0  0  0
  -29.8420  -19.2570  -36.5150 C   0  0  0  0  0  0  0  0  0  0  0  0
  -30.6940  -19.9410  -35.4000 C   0  0  2  0  0  0  0  0  0  0  0  0
  -32.0680  -19.6790  -35.7570 N   0  0  0  0  0  0  0  0  0  0  0  0
  -32.7970  -20.4700  -36.5570 C   0  0  0  0  0  0  0  0  0  0  0  0
  -32.3170  -21.4820  -37.0460 O   0  0  0  0  0  0  0  0  0  0  0  0
  -34.0680  -20.1460  -36.8200 N   0  0  0  0  0  0  0  0  0  0  0  0
  -34.6540  -20.6790  -38.0450 C   0  0  2  0  0  0  0  0  0  0  0  0
  -33.6880  -20.4610  -39.1980 C   0  0  0  0  0  0  0  0  0  0  0  0
  -33.8460  -21.3030  -40.2110 O   0  5  0  0  0  0  0  0  0  0  0  0
  -32.8000  -19.6120  -39.2540 O   0  0  0  0  0  0  0  0  0  0  0  0
  -35.9850  -19.9690  -38.4110 C   0  0  0  0  0  0  0  0  0  0  0  0
  -35.7310  -18.4430  -38.5370 C   0  0  0  0  0  0  0  0  0  0  0  0
  -36.8730  -17.7170  -39.1980 C   0  0  0  0  0  0  0  0  0  0  0  0
  -37.7140  -18.2470  -39.9580 O   0  5  0  0  0  0  0  0  0  0  0  0
  -36.9810  -16.4230  -39.0040 O   0  0  0  0  0  0  0  0  0  0  0  0
  -30.5100  -19.3580  -34.0160 C   0  0  0  0  0  0  0  0  0  0  0  0
  -30.0100  -20.0140  -33.0820 O   0  5  0  0  0  0  0  0  0  0  0  0
  -31.0630  -18.2070  -33.7730 O   0  0  0  0  0  0  0  0  0  0  0  0
  -24.5120  -16.2790  -35.9120 N   0  0  0  0  0  0  0  0  0  0  0  0
  -23.7890  -15.9890  -34.7880 C   0  0  0  0  0  0  0  0  0  0  0  0
  -23.9490  -14.7260  -34.1940 C   0  0  0  0  0  0  0  0  0  0  0  0
  -23.2420  -14.3800  -33.0450 C   0  0  0  0  0  0  0  0  0  0  0  0
  -22.3410  -15.2980  -32.5040 C   0  0  0  0  0  0  0  0  0  0  0  0
  -22.1540  -16.5600  -33.0980 C   0  0  0  0  0  0  0  0  0  0  0  0
  -22.8750  -16.9100  -34.2380 C   0  0  0  0  0  0  0  0  0  0  0  0
  -24.8390  -13.8220  -34.7070 O   0  0  0  0  0  0  0  0  0  0  0  0
  -24.4770  -12.8550  -35.6900 C   0  0  0  0  0  0  0  0  0  0  0  0
  -25.7420  -12.1900  -36.2300 C   0  0  0  0  0  0  0  0  0  0  0  0
  -25.4880  -11.4450  -37.4480 N   0  0  0  0  0  0  0  0  0  0  0  0
  -25.0110  -11.9350  -38.6110 C   0  0  0  0  0  0  0  0  0  0  0  0
  -25.4040  -12.9770  -39.2030 O   0  0  0  0  0  0  0  0  0  0  0  0
  -23.9270  -11.0390  -39.1600 C   0  0  0  0  0  0  0  0  0  0  0  0
  -26.2502  -16.6749  -37.6076 H   0  0  0  0  0  0  0  0  0  0  0  0
  -25.8193  -19.6242  -37.4870 H   0  0  0  0  0  0  0  0  0  0  0  0
  -26.0002  -18.7474  -39.0443 H   0  0  0  0  0  0  0  0  0  0  0  0
  -28.1358  -19.6421  -38.6353 H   0  0  0  0  0  0  0  0  0  0  0  0
  -28.2638  -17.9288  -38.1109 H   0  0  0  0  0  0  0  0  0  0  0  0
  -27.8794  -18.7138  -35.7333 H   0  0  0  0  0  0  0  0  0  0  0  0
  -27.9941  -20.4020  -36.3362 H   0  0  0  0  0  0  0  0  0  0  0  0
  -30.1847  -19.6772  -37.4720 H   0  0  0  0  0  0  0  0  0  0  0  0
  -30.0828  -18.1843  -36.4783 H   0  0  0  0  0  0  0  0  0  0  0  0
  -30.4802  -21.0198  -35.3782 H   0  0  0  0  0  0  0  0  0  0  0  0
  -32.5020  -18.8583  -35.3853 H   0  0  0  0  0  0  0  0  0  0  0  0
  -34.5948  -19.5623  -36.2021 H   0  0  0  0  0  0  0  0  0  0  0  0
  -34.8409  -21.7549  -37.9126 H   0  0  0  0  0  0  0  0  0  0  0  0
  -36.7297  -20.1542  -37.6229 H   0  0  0  0  0  0  0  0  0  0  0  0
  -36.3594  -20.3600  -39.3686 H   0  0  0  0  0  0  0  0  0  0  0  0
  -34.8210  -18.2857  -39.1346 H   0  0  0  0  0  0  0  0  0  0  0  0
  -35.5848  -18.0261  -37.5296 H   0  0  0  0  0  0  0  0  0  0  0  0
  -24.8643  -15.4924  -36.4191 H   0  0  0  0  0  0  0  0  0  0  0  0
  -23.3893  -13.4128  -32.5783 H   0  0  0  0  0  0  0  0  0  0  0  0
  -21.7783  -15.0358  -31.6154 H   0  0  0  0  0  0  0  0  0  0  0  0
  -21.4479  -17.2611  -32.6680 H   0  0  0  0  0  0  0  0  0  0  0  0
  -22.7341  -17.8817  -34.6975 H   0  0  0  0  0  0  0  0  0  0  0  0
  -23.9415  -13.3501  -36.5134 H   0  0  0  0  0  0  0  0  0  0  0  0
  -23.8266  -12.0935  -35.2350 H   0  0  0  0  0  0  0  0  0  0  0  0
  -26.1337  -11.5007  -35.4676 H   0  0  0  0  0  0  0  0  0  0  0  0
  -26.4903  -12.9684  -36.4397 H   0  0  0  0  0  0  0  0  0  0  0  0
  -25.6873  -10.4654  -37.4233 H   0  0  0  0  0  0  0  0  0  0  0  0
  -23.5519  -11.4551  -40.1066 H   0  0  0  0  0  0  0  0  0  0  0  0
  -23.1021  -10.9751  -38.4352 H   0  0  0  0  0  0  0  0  0  0  0  0
  -24.3372  -10.0341  -39.3383 H   0  0  0  0  0  0  0  0  0  0  0  0
  1  2  2  0  0  0  0
  2  3  1  0  0  0  0
  2 25  1  0  0  0  0
  3  4  1  0  0  0  0
  3 39  1  0  0  0  0
  4  5  1  0  0  0  0
  4 40  1  0  0  0  0
  4 41  1  0  0  0  0
  5  6  1  0  0  0  0
  5 42  1  0  0  0  0
  5 43  1  0  0  0  0
  6  7  1  0  0  0  0
  6 44  1  0  0  0  0
  6 45  1  0  0  0  0
  7  8  1  0  0  0  0
  7 46  1  0  0  0  0
  7 47  1  0  0  0  0
  8  9  1  0  0  0  0
  8 22  1  0  0  0  0
  8 48  1  1  0  0  0
  9 10  1  0  0  0  0
  9 49  1  0  0  0  0
 10 11  2  0  0  0  0
 10 12  1  0  0  0  0
 12 13  1  0  0  0  0
 12 50  1  0  0  0  0
 13 14  1  0  0  0  0
 13 17  1  0  0  0  0
 13 51  1  1  0  0  0
 14 15  1  0  0  0  0
 14 16  2  0  0  0  0
 17 18  1  0  0  0  0
 17 52  1  0  0  0  0
 17 53  1  0  0  0  0
 18 19  1  0  0  0  0
 18 54  1  0  0  0  0
 18 55  1  0  0  0  0
 19 20  1  0  0  0  0
 19 21  2  0  0  0  0
 22 23  1  0  0  0  0
 22 24  2  0  0  0  0
 25 26  1  0  0  0  0
 25 56  1  0  0  0  0
 26 27  2  0  0  0  0
 26 31  1  0  0  0  0
 27 28  1  0  0  0  0
 27 32  1  0  0  0  0
 28 29  2  0  0  0  0
 28 57  1  0  0  0  0
 29 30  1  0  0  0  0
 29 58  1  0  0  0  0
 30 31  2  0  0  0  0
 30 59  1  0  0  0  0
 31 60  1  0  0  0  0
 32 33  1  0  0  0  0
 33 34  1  0  0  0  0
 33 61  1  0  0  0  0
 33 62  1  0  0  0  0
 34 35  1  0  0  0  0
 34 63  1  0  0  0  0
 34 64  1  0  0  0  0
 35 36  1  0  0  0  0
 35 65  1  0  0  0  0
 36 37  2  0  0  0  0
 36 38  1  0  0  0  0
 38 66  1  0  0  0  0
 38 67  1  0  0  0  0
 38 68  1  0  0  0  0
M  CHG  3  15  -1  20  -1  23  -1
M  END
