4nie_ligand
 OpenBabel08222323353D

 66 68  0  0  1  0  0  0  0  0999 V2000
   20.9890   -8.1840   -6.4500 C   0  0  0  0  0  0  0  0  0  0  0  0
   21.4630   -8.0560   -5.0220 C   0  0  0  0  0  0  0  0  0  0  0  0
   22.4980   -6.8750   -4.6780 C   0  0  0  0  0  0  0  0  0  0  0  0
   21.9900   -5.5130   -4.6290 N   0  3  1  0  0  0  0  0  0  0  0  0
   21.4160   -5.1740   -3.3090 C   0  0  0  0  0  0  0  0  0  0  0  0
   20.3560   -4.1320   -3.2530 C   0  0  0  0  0  0  0  0  0  0  0  0
   20.3380   -3.2150   -2.1710 C   0  0  0  0  0  0  0  0  0  0  0  0
   19.3350   -2.2140   -2.0960 C   0  0  0  0  0  0  0  0  0  0  0  0
   18.3730   -2.1240   -3.0660 C   0  0  0  0  0  0  0  0  0  0  0  0
   18.3820   -3.0390   -4.1530 C   0  0  0  0  0  0  0  0  0  0  0  0
   19.3880   -4.0420   -4.2350 C   0  0  0  0  0  0  0  0  0  0  0  0
   22.9540   -4.4950   -5.1530 C   0  0  0  0  0  0  0  0  0  0  0  0
   23.2610   -4.5620   -6.6560 C   0  0  0  0  0  0  0  0  0  0  0  0
   22.2880   -4.2650   -7.6030 C   0  0  0  0  0  0  0  0  0  0  0  0
   22.5810   -4.3440   -8.9750 C   0  0  0  0  0  0  0  0  0  0  0  0
   23.8600   -4.7330   -9.4070 C   0  0  0  0  0  0  0  0  0  0  0  0
   24.2720   -4.8510  -10.7650 N   0  0  0  0  0  0  0  0  0  0  0  0
   23.4110   -4.8870  -11.9140 C   0  0  0  0  0  0  0  0  0  0  0  0
   22.2160   -4.8380  -11.8330 O   0  0  0  0  0  0  0  0  0  0  0  0
   24.0380   -5.0650  -13.2770 C   0  0  0  0  0  0  0  0  0  0  0  0
   23.7770   -6.4890  -13.7590 C   0  0  0  0  0  0  0  0  0  0  0  0
   24.4050   -7.5510  -13.0690 C   0  0  0  0  0  0  0  0  0  0  0  0
   24.1660   -8.8940  -13.4560 C   0  0  0  0  0  0  0  0  0  0  0  0
   23.2920   -9.1730  -14.5350 C   0  0  0  0  0  0  0  0  0  0  0  0
   22.6410   -8.1110  -15.2110 C   0  0  0  0  0  0  0  0  0  0  0  0
   22.8690   -6.7650  -14.8280 C   0  0  0  0  0  0  0  0  0  0  0  0
   22.9820  -10.8400  -15.0040 S   0  0  0  0  0  0  0  0  0  0  0  0
   22.9390  -10.9650  -16.4350 O   0  0  0  0  0  0  0  0  0  0  0  0
   24.0300  -11.7580  -14.5970 O   0  0  0  0  0  0  0  0  0  0  0  0
   21.3770  -11.3070  -14.2570 C   0  0  0  0  0  0  0  0  0  0  0  0
   21.1740  -10.9830  -12.7430 C   0  0  0  0  0  0  0  0  0  0  0  0
   24.8340   -5.0400   -8.4310 C   0  0  0  0  0  0  0  0  0  0  0  0
   24.5470   -4.9640   -7.0790 C   0  0  0  0  0  0  0  0  0  0  0  0
   20.2907   -9.0302   -6.5301 H   0  0  0  0  0  0  0  0  0  0  0  0
   21.8526   -8.3577   -7.1088 H   0  0  0  0  0  0  0  0  0  0  0  0
   20.4783   -7.2575   -6.7513 H   0  0  0  0  0  0  0  0  0  0  0  0
   21.9472   -9.0057   -4.7508 H   0  0  0  0  0  0  0  0  0  0  0  0
   20.5730   -7.9055   -4.3933 H   0  0  0  0  0  0  0  0  0  0  0  0
   23.2895   -6.9013   -5.4414 H   0  0  0  0  0  0  0  0  0  0  0  0
   22.9320   -7.0976   -3.6921 H   0  0  0  0  0  0  0  0  0  0  0  0
   21.2129   -5.4935   -5.2707 H   0  0  0  0  0  0  0  0  0  0  0  0
   22.2441   -4.8322   -2.6707 H   0  0  0  0  0  0  0  0  0  0  0  0
   20.9885   -6.0976   -2.8917 H   0  0  0  0  0  0  0  0  0  0  0  0
   21.0945   -3.2792   -1.3973 H   0  0  0  0  0  0  0  0  0  0  0  0
   19.3305   -1.5167   -1.2661 H   0  0  0  0  0  0  0  0  0  0  0  0
   17.6081   -1.3583   -3.0050 H   0  0  0  0  0  0  0  0  0  0  0  0
   17.6206   -2.9728   -4.9217 H   0  0  0  0  0  0  0  0  0  0  0  0
   19.3950   -4.7356   -5.0680 H   0  0  0  0  0  0  0  0  0  0  0  0
   23.9028   -4.6211   -4.6109 H   0  0  0  0  0  0  0  0  0  0  0  0
   22.5392   -3.4989   -4.9394 H   0  0  0  0  0  0  0  0  0  0  0  0
   21.2958   -3.9703   -7.2808 H   0  0  0  0  0  0  0  0  0  0  0  0
   21.8159   -4.1034   -9.7042 H   0  0  0  0  0  0  0  0  0  0  0  0
   25.2554   -4.9149  -10.9350 H   0  0  0  0  0  0  0  0  0  0  0  0
   25.1220   -4.8906  -13.2104 H   0  0  0  0  0  0  0  0  0  0  0  0
   23.5941   -4.3487  -13.9840 H   0  0  0  0  0  0  0  0  0  0  0  0
   25.0716   -7.3379  -12.2412 H   0  0  0  0  0  0  0  0  0  0  0  0
   24.6515   -9.7060  -12.9268 H   0  0  0  0  0  0  0  0  0  0  0  0
   21.9629   -8.3297  -16.0279 H   0  0  0  0  0  0  0  0  0  0  0  0
   22.3611   -5.9554  -15.3394 H   0  0  0  0  0  0  0  0  0  0  0  0
   21.2573  -12.3933  -14.3820 H   0  0  0  0  0  0  0  0  0  0  0  0
   20.5870  -10.7843  -14.8162 H   0  0  0  0  0  0  0  0  0  0  0  0
   20.1736  -11.3147  -12.4280 H   0  0  0  0  0  0  0  0  0  0  0  0
   21.2675   -9.8985  -12.5843 H   0  0  0  0  0  0  0  0  0  0  0  0
   21.9378  -11.5076  -12.1501 H   0  0  0  0  0  0  0  0  0  0  0  0
   25.8262   -5.3412   -8.7472 H   0  0  0  0  0  0  0  0  0  0  0  0
   25.3071   -5.2123   -6.3471 H   0  0  0  0  0  0  0  0  0  0  0  0
  1  2  1  0  0  0  0
  1 34  1  0  0  0  0
  1 35  1  0  0  0  0
  1 36  1  0  0  0  0
  2  3  1  0  0  0  0
  2 37  1  0  0  0  0
  2 38  1  0  0  0  0
  3  4  1  0  0  0  0
  3 39  1  0  0  0  0
  3 40  1  0  0  0  0
  4  5  1  0  0  0  0
  4 12  1  0  0  0  0
  4 41  1  6  0  0  0
  5  6  1  0  0  0  0
  5 42  1  0  0  0  0
  5 43  1  0  0  0  0
  6  7  2  0  0  0  0
  6 11  1  0  0  0  0
  7  8  1  0  0  0  0
  7 44  1  0  0  0  0
  8  9  2  0  0  0  0
  8 45  1  0  0  0  0
  9 10  1  0  0  0  0
  9 46  1  0  0  0  0
 10 11  2  0  0  0  0
 10 47  1  0  0  0  0
 11 48  1  0  0  0  0
 12 13  1  0  0  0  0
 12 49  1  0  0  0  0
 12 50  1  0  0  0  0
 13 14  2  0  0  0  0
 13 33  1  0  0  0  0
 14 15  1  0  0  0  0
 14 51  1  0  0  0  0
 15 16  2  0  0  0  0
 15 52  1  0  0  0  0
 16 17  1  0  0  0  0
 16 32  1  0  0  0  0
 17 18  1  0  0  0  0
 17 53  1  0  0  0  0
 18 19  2  0  0  0  0
 18 20  1  0  0  0  0
 20 21  1  0  0  0  0
 20 54  1  0  0  0  0
 20 55  1  0  0  0  0
 21 22  2  0  0  0  0
 21 26  1  0  0  0  0
 22 23  1  0  0  0  0
 22 56  1  0  0  0  0
 23 24  2  0  0  0  0
 23 57  1  0  0  0  0
 24 25  1  0  0  0  0
 24 27  1  0  0  0  0
 25 26  2  0  0  0  0
 25 58  1  0  0  0  0
 26 59  1  0  0  0  0
 27 28  2  0  0  0  0
 27 29  2  0  0  0  0
 27 30  1  0  0  0  0
 30 31  1  0  0  0  0
 30 60  1  0  0  0  0
 30 61  1  0  0  0  0
 31 62  1  0  0  0  0
 31 63  1  0  0  0  0
 31 64  1  0  0  0  0
 32 33  2  0  0  0  0
 32 65  1  0  0  0  0
 33 66  1  0  0  0  0
M  CHG  1   4   1
M  END
