4nk3_ligand
 OpenBabel08222323353D

 46 47  0  0  1  0  0  0  0  0999 V2000
    3.6100   13.7740   19.4520 C   0  0  0  0  0  0  0  0  0  0  0  0
    9.4460   17.8560   17.3980 C   0  0  0  0  0  0  0  0  0  0  0  0
   10.7600   15.9270   17.9200 C   0  0  0  0  0  0  0  0  0  0  0  0
    5.1220   11.9790   20.2100 C   0  0  0  0  0  0  0  0  0  0  0  0
    5.4990   10.6470   18.1850 C   0  0  0  0  0  0  0  0  0  0  0  0
    5.6120   13.0290   17.9860 C   0  0  1  0  0  0  0  0  0  0  0  0
    4.3030   13.8170   18.0930 C   0  0  0  0  0  0  0  0  0  0  0  0
    8.2670   16.9680   17.0360 C   0  0  0  0  0  0  0  0  0  0  0  0
    9.6450   14.9860   17.4940 C   0  0  0  0  0  0  0  0  0  0  0  0
    8.3300   15.6690   17.8110 C   0  0  0  0  0  0  0  0  0  0  0  0
    6.8260   13.8220   18.4310 C   0  0  0  0  0  0  0  0  0  0  0  0
    3.6830   12.4320   20.1650 C   0  0  2  0  0  0  0  0  0  0  0  0
   10.6990   17.1550   17.1340 N   0  3  0  0  0  0  0  0  0  0  0  0
    7.1800   14.8200   17.5510 N   0  0  0  0  0  0  0  0  0  0  0  0
    3.0160   11.3530   19.4430 N   0  3  0  0  0  0  0  0  0  0  0  0
    5.5930   11.8450   18.8360 N   0  0  0  0  0  0  0  0  0  0  0  0
    1.7490    9.4650   17.9160 O   0  0  0  0  0  1  0  0  0  0  0  0
    5.5160   10.5150   16.9610 O   0  0  0  0  0  0  0  0  0  0  0  0
    7.4500   13.5770   19.4560 O   0  0  0  0  0  0  0  0  0  0  0  0
   -0.4440   10.7030   18.2140 O   0  0  0  0  0  1  0  0  0  0  0  0
    1.4990   11.7010   16.9440 O   0  0  0  0  0  1  0  0  0  0  0  0
    1.5850   11.5660   19.4220 O   0  0  0  0  0  0  0  0  0  0  0  0
    0.9850   10.8950   18.0400 S   0  0  0  0  0  0  0  0  0  0  0  0
    2.5494   14.0247   19.3030 H   0  0  0  0  0  0  0  0  0  0  0  0
    4.0783   14.5306   20.0987 H   0  0  0  0  0  0  0  0  0  0  0  0
    9.3920   18.1159   18.4655 H   0  0  0  0  0  0  0  0  0  0  0  0
    9.4087   18.7749   16.7945 H   0  0  0  0  0  0  0  0  0  0  0  0
   11.7320   15.4381   17.7583 H   0  0  0  0  0  0  0  0  0  0  0  0
   10.6448   16.1703   18.9866 H   0  0  0  0  0  0  0  0  0  0  0  0
    5.1928   11.0099   20.7255 H   0  0  0  0  0  0  0  0  0  0  0  0
    5.7317   12.7234   20.7431 H   0  0  0  0  0  0  0  0  0  0  0  0
    5.4024    9.7471   18.7907 H   0  0  0  0  0  0  0  0  0  0  0  0
    5.7421   12.7268   16.9364 H   0  0  0  0  0  0  0  0  0  0  0  0
    4.5227   14.8692   17.8595 H   0  0  0  0  0  0  0  0  0  0  0  0
    3.6044   13.4136   17.3452 H   0  0  0  0  0  0  0  0  0  0  0  0
    8.2949   16.7492   15.9583 H   0  0  0  0  0  0  0  0  0  0  0  0
    7.3305   17.4909   17.2799 H   0  0  0  0  0  0  0  0  0  0  0  0
    9.7199   14.0389   18.0484 H   0  0  0  0  0  0  0  0  0  0  0  0
    9.7139   14.7856   16.4146 H   0  0  0  0  0  0  0  0  0  0  0  0
    8.3221   15.9101   18.8842 H   0  0  0  0  0  0  0  0  0  0  0  0
    3.2629   12.5340   21.1765 H   0  0  0  0  0  0  0  0  0  0  0  0
   11.4733   17.7500   17.3840 H   0  0  0  0  0  0  0  0  0  0  0  0
   10.7535   16.9267   16.1537 H   0  0  0  0  0  0  0  0  0  0  0  0
    6.6387   14.9623   16.7223 H   0  0  0  0  0  0  0  0  0  0  0  0
    3.2142   10.4764   19.8994 H   0  0  0  0  0  0  0  0  0  0  0  0
    3.3610   11.3245   18.4963 H   0  0  0  0  0  0  0  0  0  0  0  0
  1  7  1  0  0  0  0
  1 24  1  0  0  0  0
  1 25  1  0  0  0  0
  2 13  1  0  0  0  0
  2 26  1  0  0  0  0
  2 27  1  0  0  0  0
  3 13  1  0  0  0  0
  3 28  1  0  0  0  0
  3 29  1  0  0  0  0
  4 16  1  0  0  0  0
  4 30  1  0  0  0  0
  4 31  1  0  0  0  0
  5 18  2  0  0  0  0
  5 32  1  0  0  0  0
  6 11  1  0  0  0  0
  6 33  1  6  0  0  0
  7  6  1  0  0  0  0
  7 34  1  0  0  0  0
  7 35  1  0  0  0  0
  8  2  1  0  0  0  0
  8 36  1  0  0  0  0
  8 37  1  0  0  0  0
  9  3  1  0  0  0  0
  9 38  1  0  0  0  0
  9 39  1  0  0  0  0
 10  8  1  0  0  0  0
 10  9  1  0  0  0  0
 10 40  1  0  0  0  0
 11 14  1  0  0  0  0
 11 19  2  0  0  0  0
 12  1  1  0  0  0  0
 12  4  1  0  0  0  0
 12 41  1  1  0  0  0
 13 42  1  0  0  0  0
 13 43  1  0  0  0  0
 14 10  1  0  0  0  0
 14 44  1  0  0  0  0
 15 12  1  0  0  0  0
 15 45  1  0  0  0  0
 15 46  1  0  0  0  0
 16  5  1  0  0  0  0
 16  6  1  0  0  0  0
 22 15  1  0  0  0  0
 22 23  1  0  0  0  0
 23 17  1  0  0  0  0
 23 20  1  0  0  0  0
 23 21  1  0  0  0  0
M  CHG  2  13   1  15   1
M  END
