4nmt_ligand
 OpenBabel08222323353D

135137  0  0  1  0  0  0  0  0999 V2000
   22.3880   29.7730   15.9310 N   0  3  0  0  0  0  0  0  0  0  0  0
   21.6460   28.6750   15.3240 C   0  0  2  0  0  0  0  0  0  0  0  0
   20.2070   28.6390   15.8360 C   0  0  0  0  0  0  0  0  0  0  0  0
   19.7910   29.5160   16.5980 O   0  0  0  0  0  0  0  0  0  0  0  0
   22.3460   27.3380   15.5880 C   0  0  0  0  0  0  0  0  0  0  0  0
   21.8880   26.6120   16.8440 C   0  0  0  0  0  0  0  0  0  0  0  0
   21.8200   25.1110   16.5850 C   0  0  0  0  0  0  0  0  0  0  0  0
   22.0010   24.8010   15.1660 N   0  0  0  0  0  0  0  0  0  0  0  0
   21.0260   24.8160   14.2590 C   0  0  0  0  0  3  0  0  0  0  0  0
   21.2910   24.5240   12.9940 N   0  0  0  0  0  0  0  0  0  0  0  0
   19.7880   25.1280   14.6140 N   0  0  0  0  0  0  0  0  0  0  0  0
   19.4500   27.6280   15.4150 N   0  0  0  0  0  0  0  0  0  0  0  0
   18.0450   27.5160   15.8000 C   0  0  2  0  0  0  0  0  0  0  0  0
   17.8370   26.6430   17.0310 C   0  0  0  0  0  0  0  0  0  0  0  0
   18.4990   25.6220   17.2020 O   0  0  0  0  0  0  0  0  0  0  0  0
   17.2000   26.9290   14.6690 C   0  0  0  0  0  0  0  0  0  0  0  0
   17.4980   27.4330   13.2950 C   0  0  0  0  0  0  0  0  0  0  0  0
   18.0200   28.6480   12.9490 C   0  0  0  0  0  0  0  0  0  0  0  0
   17.2920   26.7200   12.0780 C   0  0  0  0  0  0  0  0  0  0  0  0
   18.1460   28.7310   11.5820 N   0  0  0  0  0  0  0  0  0  0  0  0
   17.7080   27.5560   11.0230 C   0  0  0  0  0  0  0  0  0  0  0  0
   16.7930   25.4500   11.7740 C   0  0  0  0  0  0  0  0  0  0  0  0
   17.6390   27.1680    9.6880 C   0  0  0  0  0  0  0  0  0  0  0  0
   16.7250   25.0620   10.4460 C   0  0  0  0  0  0  0  0  0  0  0  0
   17.1460   25.9190    9.4210 C   0  0  0  0  0  0  0  0  0  0  0  0
   16.8810   27.0280   17.8760 N   0  0  0  0  0  0  0  0  0  0  0  0
   16.5330   26.2050   19.0340 C   0  0  2  0  0  0  0  0  0  0  0  0
   15.7230   24.9730   18.6320 C   0  0  0  0  0  0  0  0  0  0  0  0
   15.1000   24.9350   17.5650 O   0  0  0  0  0  0  0  0  0  0  0  0
   15.6480   27.1390   19.8540 C   0  0  0  0  0  0  0  0  0  0  0  0
   14.9780   27.9880   18.8290 C   0  0  0  0  0  0  0  0  0  0  0  0
   16.0270   28.2240   17.7700 C   0  0  0  0  0  0  0  0  0  0  0  0
   15.7420   23.9720   19.5010 N   0  0  0  0  0  0  0  0  0  0  0  0
   14.9220   22.7900   19.3260 C   0  0  2  0  0  0  0  0  0  0  0  0
   14.0870   22.5950   20.5780 C   0  0  0  0  0  0  0  0  0  0  0  0
   14.6000   22.7330   21.6880 O   0  0  0  0  0  0  0  0  0  0  0  0
   15.7920   21.5500   19.0940 C   0  0  2  0  0  0  0  0  0  0  0  0
   16.5150   21.7230   17.8740 O   0  0  0  0  0  0  0  0  0  0  0  0
   14.9250   20.3030   18.9920 C   0  0  0  0  0  0  0  0  0  0  0  0
   12.8040   22.2820   20.4010 N   0  0  0  0  0  0  0  0  0  0  0  0
   11.9420   21.9490   21.5250 C   0  0  2  0  0  0  0  0  0  0  0  0
   11.3520   20.5650   21.2990 C   0  0  0  0  0  0  0  0  0  0  0  0
   10.9560   20.2150   20.1810 O   0  0  0  0  0  0  0  0  0  0  0  0
   10.8130   22.9690   21.6740 C   0  0  0  0  0  0  0  0  0  0  0  0
   11.3480   24.2500   21.9720 O   0  0  0  0  0  0  0  0  0  0  0  0
   11.3160   19.7650   22.3580 N   0  0  0  0  0  0  0  0  0  0  0  0
   10.6110   18.4900   22.3220 C   0  0  2  0  0  0  0  0  0  0  0  0
    9.2140   18.7220   22.8440 C   0  0  0  0  0  0  0  0  0  0  0  0
    9.0340   19.3230   23.9030 O   0  0  0  0  0  0  0  0  0  0  0  0
   11.3360   17.4530   23.1920 C   0  0  0  0  0  0  0  0  0  0  0  0
   12.8110   17.3020   22.8390 C   0  0  0  0  0  0  0  0  0  0  0  0
   13.3860   15.9630   23.3000 C   0  0  0  0  0  0  0  0  0  0  0  0
   13.3510   15.8080   24.8120 C   0  0  0  0  0  0  0  0  0  0  0  0
   14.2740   16.7700   25.4450 N   0  0  0  0  0  0  0  0  0  0  0  0
   13.8860   17.9850   26.1280 C   0  0  0  0  0  0  0  0  0  0  0  0
   12.6710   18.2850   26.1890 O   0  0  0  0  0  0  0  0  0  0  0  0
   14.8960   18.7360   26.9210 C   0  0  0  0  0  0  0  0  0  0  0  0
   16.1220   18.4470   26.4900 F   0  0  0  0  0  0  0  0  0  0  0  0
   14.6480   20.0340   26.8100 F   0  0  0  0  0  0  0  0  0  0  0  0
   14.8000   18.3710   28.1870 F   0  0  0  0  0  0  0  0  0  0  0  0
    8.2290   18.2420   22.0950 N   0  0  0  0  0  0  0  0  0  0  0  0
    6.8260   18.5050   22.3850 C   0  0  2  0  0  0  0  0  0  0  0  0
    5.9720   17.2650   22.1710 C   0  0  0  0  0  0  0  0  0  0  0  0
    6.4360   16.2470   21.6570 O   0  5  0  0  0  0  0  0  0  0  0  0
    6.2690   19.6610   21.5140 C   0  0  2  0  0  0  0  0  0  0  0  0
    6.3570   19.3160   20.0290 C   0  0  0  0  0  0  0  0  0  0  0  0
    7.0130   20.9680   21.8050 C   0  0  0  0  0  0  0  0  0  0  0  0
    5.7140   20.3790   19.1460 C   0  0  0  0  0  0  0  0  0  0  0  0
    4.7930   17.3070   22.4960 O   0  0  0  0  0  0  0  0  0  0  0  0
   23.3323   29.7759   15.5783 H   0  0  0  0  0  0  0  0  0  0  0  0
   22.4036   29.6552   16.9320 H   0  0  0  0  0  0  0  0  0  0  0  0
   21.9413   30.6473   15.7025 H   0  0  0  0  0  0  0  0  0  0  0  0
   21.6188   28.8398   14.2368 H   0  0  0  0  0  0  0  0  0  0  0  0
   23.4254   27.5295   15.6785 H   0  0  0  0  0  0  0  0  0  0  0  0
   22.1613   26.6796   14.7264 H   0  0  0  0  0  0  0  0  0  0  0  0
   20.8913   26.9771   17.1325 H   0  0  0  0  0  0  0  0  0  0  0  0
   22.6006   26.8089   17.6585 H   0  0  0  0  0  0  0  0  0  0  0  0
   20.8380   24.7367   16.9098 H   0  0  0  0  0  0  0  0  0  0  0  0
   22.6120   24.6126   17.1632 H   0  0  0  0  0  0  0  0  0  0  0  0
   22.9486   24.5540   14.8467 H   0  0  0  0  0  0  0  0  0  0  0  0
   20.5359   24.5360   12.2936 H   0  0  0  0  0  0  0  0  0  0  0  0
   22.2521   24.2850   12.7111 H   0  0  0  0  0  0  0  0  0  0  0  0
   19.5757   25.3559   15.5958 H   0  0  0  0  0  0  0  0  0  0  0  0
   19.0380   25.1426   13.9082 H   0  0  0  0  0  0  0  0  0  0  0  0
   19.8518   26.9300   14.8223 H   0  0  0  0  0  0  0  0  0  0  0  0
   17.6786   28.5284   16.0255 H   0  0  0  0  0  0  0  0  0  0  0  0
   16.1452   27.1522   14.8871 H   0  0  0  0  0  0  0  0  0  0  0  0
   17.3515   25.8395   14.6672 H   0  0  0  0  0  0  0  0  0  0  0  0
   18.2952   29.4335   13.6513 H   0  0  0  0  0  0  0  0  0  0  0  0
   18.5097   29.5425   11.0623 H   0  0  0  0  0  0  0  0  0  0  0  0
   16.4656   24.7818   12.5623 H   0  0  0  0  0  0  0  0  0  0  0  0
   17.9627   27.8284    8.8916 H   0  0  0  0  0  0  0  0  0  0  0  0
   16.3400   24.0800   10.1961 H   0  0  0  0  0  0  0  0  0  0  0  0
   17.0799   25.5852    8.3918 H   0  0  0  0  0  0  0  0  0  0  0  0
   17.4312   25.8994   19.5906 H   0  0  0  0  0  0  0  0  0  0  0  0
   16.2537   27.7536   20.5362 H   0  0  0  0  0  0  0  0  0  0  0  0
   14.9079   26.5682   20.4340 H   0  0  0  0  0  0  0  0  0  0  0  0
   14.6525   28.9418   19.2699 H   0  0  0  0  0  0  0  0  0  0  0  0
   14.1090   27.4656   18.4025 H   0  0  0  0  0  0  0  0  0  0  0  0
   15.5712   28.2969   16.7716 H   0  0  0  0  0  0  0  0  0  0  0  0
   16.6006   29.1390   17.9790 H   0  0  0  0  0  0  0  0  0  0  0  0
   16.3395   24.0344   20.3004 H   0  0  0  0  0  0  0  0  0  0  0  0
   14.2596   22.9321   18.4594 H   0  0  0  0  0  0  0  0  0  0  0  0
   16.4975   21.4354   19.9302 H   0  0  0  0  0  0  0  0  0  0  0  0
   17.0632   22.4961   17.9390 H   0  0  0  0  0  0  0  0  0  0  0  0
   15.5651   19.4240   18.8258 H   0  0  0  0  0  0  0  0  0  0  0  0
   14.2248   20.4110   18.1506 H   0  0  0  0  0  0  0  0  0  0  0  0
   14.3586   20.1728   19.9259 H   0  0  0  0  0  0  0  0  0  0  0  0
   12.4252   22.2758   19.4755 H   0  0  0  0  0  0  0  0  0  0  0  0
   12.5412   21.9436   22.4475 H   0  0  0  0  0  0  0  0  0  0  0  0
   10.1447   22.6553   22.4895 H   0  0  0  0  0  0  0  0  0  0  0  0
   10.2444   23.0221   20.7339 H   0  0  0  0  0  0  0  0  0  0  0  0
   11.9243   24.5230   21.2677 H   0  0  0  0  0  0  0  0  0  0  0  0
   11.7823   20.0431   23.1978 H   0  0  0  0  0  0  0  0  0  0  0  0
   10.5635   18.1226   21.2863 H   0  0  0  0  0  0  0  0  0  0  0  0
   10.8429   16.4787   23.0594 H   0  0  0  0  0  0  0  0  0  0  0  0
   11.2580   17.7632   24.2445 H   0  0  0  0  0  0  0  0  0  0  0  0
   13.3748   18.1136   23.3220 H   0  0  0  0  0  0  0  0  0  0  0  0
   12.9225   17.3773   21.7473 H   0  0  0  0  0  0  0  0  0  0  0  0
   14.4302   15.8914   22.9615 H   0  0  0  0  0  0  0  0  0  0  0  0
   12.7974   15.1511   22.8478 H   0  0  0  0  0  0  0  0  0  0  0  0
   13.6534   14.7847   25.0794 H   0  0  0  0  0  0  0  0  0  0  0  0
   12.3287   15.9943   25.1727 H   0  0  0  0  0  0  0  0  0  0  0  0
   15.2515   16.5644   25.3978 H   0  0  0  0  0  0  0  0  0  0  0  0
    8.4588   17.6784   21.3015 H   0  0  0  0  0  0  0  0  0  0  0  0
    6.7495   18.8004   23.4418 H   0  0  0  0  0  0  0  0  0  0  0  0
    5.2091   19.8038   21.7714 H   0  0  0  0  0  0  0  0  0  0  0  0
    5.8446   18.3578   19.8581 H   0  0  0  0  0  0  0  0  0  0  0  0
    7.4169   19.2198   19.7509 H   0  0  0  0  0  0  0  0  0  0  0  0
    6.9394   21.2008   22.8776 H   0  0  0  0  0  0  0  0  0  0  0  0
    6.5627   21.7841   21.2209 H   0  0  0  0  0  0  0  0  0  0  0  0
    8.0712   20.8576   21.5256 H   0  0  0  0  0  0  0  0  0  0  0  0
    5.8045   20.0827   18.0905 H   0  0  0  0  0  0  0  0  0  0  0  0
    6.2228   21.3417   19.3015 H   0  0  0  0  0  0  0  0  0  0  0  0
    4.6506   20.4797   19.4086 H   0  0  0  0  0  0  0  0  0  0  0  0
  1  2  1  0  0  0  0
  1 70  1  0  0  0  0
  1 71  1  0  0  0  0
  1 72  1  0  0  0  0
  2  3  1  0  0  0  0
  2  5  1  0  0  0  0
  2 73  1  6  0  0  0
  3  4  2  0  0  0  0
  3 12  1  0  0  0  0
  5  6  1  0  0  0  0
  5 74  1  0  0  0  0
  5 75  1  0  0  0  0
  6  7  1  0  0  0  0
  6 76  1  0  0  0  0
  6 77  1  0  0  0  0
  7  8  1  0  0  0  0
  7 78  1  0  0  0  0
  7 79  1  0  0  0  0
  8  9  1  0  0  0  0
  8 80  1  0  0  0  0
  9 10  1  0  0  0  0
  9 11  1  0  0  0  0
 10 81  1  0  0  0  0
 10 82  1  0  0  0  0
 11 83  1  0  0  0  0
 11 84  1  0  0  0  0
 12 13  1  0  0  0  0
 12 85  1  0  0  0  0
 13 14  1  0  0  0  0
 13 16  1  0  0  0  0
 13 86  1  1  0  0  0
 14 15  2  0  0  0  0
 14 26  1  0  0  0  0
 16 17  1  0  0  0  0
 16 87  1  0  0  0  0
 16 88  1  0  0  0  0
 17 18  2  0  0  0  0
 17 19  1  0  0  0  0
 18 20  1  0  0  0  0
 18 89  1  0  0  0  0
 19 21  2  0  0  0  0
 19 22  1  0  0  0  0
 20 21  1  0  0  0  0
 20 90  1  0  0  0  0
 21 23  1  0  0  0  0
 22 24  2  0  0  0  0
 22 91  1  0  0  0  0
 23 25  2  0  0  0  0
 23 92  1  0  0  0  0
 24 25  1  0  0  0  0
 24 93  1  0  0  0  0
 25 94  1  0  0  0  0
 26 27  1  0  0  0  0
 26 32  1  0  0  0  0
 27 28  1  0  0  0  0
 27 30  1  0  0  0  0
 27 95  1  1  0  0  0
 28 29  2  0  0  0  0
 28 33  1  0  0  0  0
 30 31  1  0  0  0  0
 30 96  1  0  0  0  0
 30 97  1  0  0  0  0
 31 32  1  0  0  0  0
 31 98  1  0  0  0  0
 31 99  1  0  0  0  0
 32100  1  0  0  0  0
 32101  1  0  0  0  0
 33 34  1  0  0  0  0
 33102  1  0  0  0  0
 34 35  1  0  0  0  0
 34 37  1  0  0  0  0
 34103  1  6  0  0  0
 35 36  2  0  0  0  0
 35 40  1  0  0  0  0
 37 38  1  0  0  0  0
 37 39  1  0  0  0  0
 37104  1  1  0  0  0
 38105  1  0  0  0  0
 39106  1  0  0  0  0
 39107  1  0  0  0  0
 39108  1  0  0  0  0
 40 41  1  0  0  0  0
 40109  1  0  0  0  0
 41 42  1  0  0  0  0
 41 44  1  0  0  0  0
 41110  1  1  0  0  0
 42 43  2  0  0  0  0
 42 46  1  0  0  0  0
 44 45  1  0  0  0  0
 44111  1  0  0  0  0
 44112  1  0  0  0  0
 45113  1  0  0  0  0
 46 47  1  0  0  0  0
 46114  1  0  0  0  0
 47 48  1  0  0  0  0
 47 50  1  0  0  0  0
 47115  1  6  0  0  0
 48 49  2  0  0  0  0
 48 61  1  0  0  0  0
 50 51  1  0  0  0  0
 50116  1  0  0  0  0
 50117  1  0  0  0  0
 51 52  1  0  0  0  0
 51118  1  0  0  0  0
 51119  1  0  0  0  0
 52 53  1  0  0  0  0
 52120  1  0  0  0  0
 52121  1  0  0  0  0
 53 54  1  0  0  0  0
 53122  1  0  0  0  0
 53123  1  0  0  0  0
 54 55  1  0  0  0  0
 54124  1  0  0  0  0
 55 56  2  0  0  0  0
 55 57  1  0  0  0  0
 57 58  1  0  0  0  0
 57 59  1  0  0  0  0
 57 60  1  0  0  0  0
 61 62  1  0  0  0  0
 61125  1  0  0  0  0
 62 63  1  0  0  0  0
 62 65  1  0  0  0  0
 62126  1  1  0  0  0
 63 64  1  0  0  0  0
 63 69  2  0  0  0  0
 65 66  1  0  0  0  0
 65 67  1  0  0  0  0
 65127  1  1  0  0  0
 66 68  1  0  0  0  0
 66128  1  0  0  0  0
 66129  1  0  0  0  0
 67130  1  0  0  0  0
 67131  1  0  0  0  0
 67132  1  0  0  0  0
 68133  1  0  0  0  0
 68134  1  0  0  0  0
 68135  1  0  0  0  0
M  CHG  2   1   1  64  -1
M  END
