4nmv_ligand
 OpenBabel08222323353D

118121  0  0  1  0  0  0  0  0999 V2000
   19.5550   27.1080   15.3790 N   0  3  0  0  0  0  0  0  0  0  0  0
   18.1670   27.2610   15.8030 C   0  0  2  0  0  0  0  0  0  0  0  0
   17.9230   26.4420   17.0630 C   0  0  0  0  0  0  0  0  0  0  0  0
   18.5970   25.4440   17.3130 O   0  0  0  0  0  0  0  0  0  0  0  0
   17.1940   26.7970   14.7190 C   0  0  0  0  0  0  0  0  0  0  0  0
   17.5300   27.2650   13.3320 C   0  0  0  0  0  0  0  0  0  0  0  0
   18.1070   28.4560   12.9710 C   0  0  0  0  0  0  0  0  0  0  0  0
   17.3050   26.5420   12.1200 C   0  0  0  0  0  0  0  0  0  0  0  0
   18.2500   28.5100   11.6010 N   0  0  0  0  0  0  0  0  0  0  0  0
   17.7700   27.3470   11.0580 C   0  0  0  0  0  0  0  0  0  0  0  0
   16.7620   25.2890   11.8280 C   0  0  0  0  0  0  0  0  0  0  0  0
   17.7000   26.9310    9.7250 C   0  0  0  0  0  0  0  0  0  0  0  0
   16.6990   24.8810   10.5090 C   0  0  0  0  0  0  0  0  0  0  0  0
   17.1630   25.6990    9.4740 C   0  0  0  0  0  0  0  0  0  0  0  0
   16.9530   26.8680   17.8710 N   0  0  0  0  0  0  0  0  0  0  0  0
   16.5550   26.0760   19.0350 C   0  0  2  0  0  0  0  0  0  0  0  0
   15.7600   24.8430   18.6230 C   0  0  0  0  0  0  0  0  0  0  0  0
   15.1600   24.8150   17.5450 O   0  0  0  0  0  0  0  0  0  0  0  0
   15.6280   27.0290   19.7920 C   0  0  0  0  0  0  0  0  0  0  0  0
   15.0270   27.8760   18.7140 C   0  0  0  0  0  0  0  0  0  0  0  0
   16.1710   28.1110   17.7600 C   0  0  0  0  0  0  0  0  0  0  0  0
   15.7500   23.8470   19.4980 N   0  0  0  0  0  0  0  0  0  0  0  0
   14.9380   22.6520   19.3160 C   0  0  2  0  0  0  0  0  0  0  0  0
   14.1200   22.4360   20.5740 C   0  0  0  0  0  0  0  0  0  0  0  0
   14.6390   22.5940   21.6830 O   0  0  0  0  0  0  0  0  0  0  0  0
   15.8160   21.4270   19.0720 C   0  0  2  0  0  0  0  0  0  0  0  0
   16.5600   21.6380   17.8700 O   0  0  0  0  0  0  0  0  0  0  0  0
   14.9630   20.1670   18.9220 C   0  0  0  0  0  0  0  0  0  0  0  0
   12.8410   22.0940   20.4110 N   0  0  0  0  0  0  0  0  0  0  0  0
   11.9880   21.7670   21.5450 C   0  0  2  0  0  0  0  0  0  0  0  0
   11.3670   20.4140   21.3110 C   0  0  0  0  0  0  0  0  0  0  0  0
   10.9410   20.1160   20.1940 O   0  0  0  0  0  0  0  0  0  0  0  0
   10.8610   22.7870   21.7130 C   0  0  0  0  0  0  0  0  0  0  0  0
   11.3820   24.0740   22.0160 O   0  0  0  0  0  0  0  0  0  0  0  0
   11.3350   19.5940   22.3570 N   0  0  0  0  0  0  0  0  0  0  0  0
   10.5900   18.3430   22.3470 C   0  0  2  0  0  0  0  0  0  0  0  0
    9.2000   18.6490   22.8210 C   0  0  0  0  0  0  0  0  0  0  0  0
    9.0150   19.3190   23.8500 O   0  0  0  0  0  0  0  0  0  0  0  0
   11.2390   17.3240   23.2890 C   0  0  0  0  0  0  0  0  0  0  0  0
   12.6390   16.9420   22.8720 C   0  0  0  0  0  0  0  0  0  0  0  0
   13.0020   15.5680   23.3900 C   0  0  0  0  0  0  0  0  0  0  0  0
   13.1020   15.5810   24.8930 C   0  0  0  0  0  0  0  0  0  0  0  0
   14.2390   16.4140   25.3340 N   0  0  0  0  0  0  0  0  0  0  0  0
   14.1510   17.6930   26.0210 C   0  0  0  0  0  0  0  0  0  0  0  0
   13.0310   18.2560   26.0810 O   0  0  0  0  0  0  0  0  0  0  0  0
   15.3960   18.4460   26.3340 C   0  0  0  0  0  0  0  0  0  0  0  0
   15.3260   19.7320   26.8510 C   0  0  0  0  0  0  0  0  0  0  0  0
   16.4930   20.4260   27.1380 C   0  0  0  0  0  0  0  0  0  0  0  0
   17.7230   19.8300   26.9120 C   0  0  0  0  0  0  0  0  0  0  0  0
   19.3540   20.7940   27.3150 Br  0  0  0  0  0  0  0  0  0  0  0  0
   17.7930   18.5460   26.3940 C   0  0  0  0  0  0  0  0  0  0  0  0
   16.6280   17.8550   26.1060 C   0  0  0  0  0  0  0  0  0  0  0  0
    8.2160   18.1570   22.0760 N   0  0  0  0  0  0  0  0  0  0  0  0
    6.8140   18.4290   22.3600 C   0  0  2  0  0  0  0  0  0  0  0  0
    5.9600   17.1940   22.1550 C   0  0  0  0  0  0  0  0  0  0  0  0
    6.4280   16.1610   21.6570 O   0  5  0  0  0  0  0  0  0  0  0  0
    6.2380   19.5650   21.4850 C   0  0  2  0  0  0  0  0  0  0  0  0
    6.3220   19.2280   19.9970 C   0  0  0  0  0  0  0  0  0  0  0  0
    6.9510   20.8790   21.7620 C   0  0  0  0  0  0  0  0  0  0  0  0
    5.7000   20.3170   19.1100 C   0  0  0  0  0  0  0  0  0  0  0  0
    4.7810   17.2310   22.4870 O   0  0  0  0  0  0  0  0  0  0  0  0
   19.7133   27.6513   14.5448 H   0  0  0  0  0  0  0  0  0  0  0  0
   19.7428   26.1363   15.1878 H   0  0  0  0  0  0  0  0  0  0  0  0
   20.1676   27.4308   16.1115 H   0  0  0  0  0  0  0  0  0  0  0  0
   17.9792   28.3232   16.0187 H   0  0  0  0  0  0  0  0  0  0  0  0
   16.1922   27.1729   14.9741 H   0  0  0  0  0  0  0  0  0  0  0  0
   17.1833   25.6971   14.7162 H   0  0  0  0  0  0  0  0  0  0  0  0
   18.4072   29.2413   13.6631 H   0  0  0  0  0  0  0  0  0  0  0  0
   18.6522   29.2966   11.0716 H   0  0  0  0  0  0  0  0  0  0  0  0
   16.3964   24.6477   12.6218 H   0  0  0  0  0  0  0  0  0  0  0  0
   18.0584   27.5622    8.9199 H   0  0  0  0  0  0  0  0  0  0  0  0
   16.2821   23.9087   10.2723 H   0  0  0  0  0  0  0  0  0  0  0  0
   17.0954   25.3486    8.4504 H   0  0  0  0  0  0  0  0  0  0  0  0
   17.4265   25.7830   19.6389 H   0  0  0  0  0  0  0  0  0  0  0  0
   16.1967   27.6459   20.5034 H   0  0  0  0  0  0  0  0  0  0  0  0
   14.8487   26.4710   20.3318 H   0  0  0  0  0  0  0  0  0  0  0  0
   14.6571   28.8274   19.1238 H   0  0  0  0  0  0  0  0  0  0  0  0
   14.2024   27.3468   18.2140 H   0  0  0  0  0  0  0  0  0  0  0  0
   15.8058   28.2583   16.7329 H   0  0  0  0  0  0  0  0  0  0  0  0
   16.7682   28.9828   18.0655 H   0  0  0  0  0  0  0  0  0  0  0  0
   16.3224   23.9192   20.3148 H   0  0  0  0  0  0  0  0  0  0  0  0
   14.2670   22.7937   18.4560 H   0  0  0  0  0  0  0  0  0  0  0  0
   16.5067   21.2981   19.9183 H   0  0  0  0  0  0  0  0  0  0  0  0
   17.1013   22.4128   17.9658 H   0  0  0  0  0  0  0  0  0  0  0  0
   15.6171   19.3000   18.7474 H   0  0  0  0  0  0  0  0  0  0  0  0
   14.2782   20.2871   18.0696 H   0  0  0  0  0  0  0  0  0  0  0  0
   14.3801   20.0073   19.8410 H   0  0  0  0  0  0  0  0  0  0  0  0
   12.4586   22.0614   19.4876 H   0  0  0  0  0  0  0  0  0  0  0  0
   12.5972   21.7449   22.4606 H   0  0  0  0  0  0  0  0  0  0  0  0
   10.2018   22.4636   22.5320 H   0  0  0  0  0  0  0  0  0  0  0  0
   10.2839   22.8432   20.7782 H   0  0  0  0  0  0  0  0  0  0  0  0
   11.9495   24.3590   21.3095 H   0  0  0  0  0  0  0  0  0  0  0  0
   11.8416   19.8458   23.1816 H   0  0  0  0  0  0  0  0  0  0  0  0
   10.5603   17.9325   21.3269 H   0  0  0  0  0  0  0  0  0  0  0  0
   10.6181   16.4161   23.3046 H   0  0  0  0  0  0  0  0  0  0  0  0
   11.2803   17.7574   24.2992 H   0  0  0  0  0  0  0  0  0  0  0  0
   13.3487   17.6783   23.2770 H   0  0  0  0  0  0  0  0  0  0  0  0
   12.6995   16.9400   21.7737 H   0  0  0  0  0  0  0  0  0  0  0  0
   13.9704   15.2651   22.9653 H   0  0  0  0  0  0  0  0  0  0  0  0
   12.2269   14.8495   23.0849 H   0  0  0  0  0  0  0  0  0  0  0  0
   13.2470   14.5521   25.2541 H   0  0  0  0  0  0  0  0  0  0  0  0
   12.1711   15.9893   25.3132 H   0  0  0  0  0  0  0  0  0  0  0  0
   15.1565   16.0656   25.1421 H   0  0  0  0  0  0  0  0  0  0  0  0
   14.3617   20.1935   27.0303 H   0  0  0  0  0  0  0  0  0  0  0  0
   16.4422   21.4322   27.5381 H   0  0  0  0  0  0  0  0  0  0  0  0
   18.7572   18.0841   26.2149 H   0  0  0  0  0  0  0  0  0  0  0  0
   16.6801   16.8506   25.7017 H   0  0  0  0  0  0  0  0  0  0  0  0
    8.4463   17.5796   21.2927 H   0  0  0  0  0  0  0  0  0  0  0  0
    6.7402   18.7344   23.4142 H   0  0  0  0  0  0  0  0  0  0  0  0
    5.1769   19.6882   21.7473 H   0  0  0  0  0  0  0  0  0  0  0  0
    5.7897   18.2819   19.8192 H   0  0  0  0  0  0  0  0  0  0  0  0
    7.3804   19.1107   19.7213 H   0  0  0  0  0  0  0  0  0  0  0  0
    6.8851   21.1128   22.8348 H   0  0  0  0  0  0  0  0  0  0  0  0
    6.4758   21.6835   21.1816 H   0  0  0  0  0  0  0  0  0  0  0  0
    8.0079   20.7913   21.4701 H   0  0  0  0  0  0  0  0  0  0  0  0
    5.7878   20.0237   18.0535 H   0  0  0  0  0  0  0  0  0  0  0  0
    6.2287   21.2679   19.2717 H   0  0  0  0  0  0  0  0  0  0  0  0
    4.6381   20.4391   19.3696 H   0  0  0  0  0  0  0  0  0  0  0  0
  1  2  1  0  0  0  0
  1 62  1  0  0  0  0
  1 63  1  0  0  0  0
  1 64  1  0  0  0  0
  2  3  1  0  0  0  0
  2  5  1  0  0  0  0
  2 65  1  1  0  0  0
  3  4  2  0  0  0  0
  3 15  1  0  0  0  0
  5  6  1  0  0  0  0
  5 66  1  0  0  0  0
  5 67  1  0  0  0  0
  6  7  2  0  0  0  0
  6  8  1  0  0  0  0
  7  9  1  0  0  0  0
  7 68  1  0  0  0  0
  8 10  2  0  0  0  0
  8 11  1  0  0  0  0
  9 10  1  0  0  0  0
  9 69  1  0  0  0  0
 10 12  1  0  0  0  0
 11 13  2  0  0  0  0
 11 70  1  0  0  0  0
 12 14  2  0  0  0  0
 12 71  1  0  0  0  0
 13 14  1  0  0  0  0
 13 72  1  0  0  0  0
 14 73  1  0  0  0  0
 15 16  1  0  0  0  0
 15 21  1  0  0  0  0
 16 17  1  0  0  0  0
 16 19  1  0  0  0  0
 16 74  1  1  0  0  0
 17 18  2  0  0  0  0
 17 22  1  0  0  0  0
 19 20  1  0  0  0  0
 19 75  1  0  0  0  0
 19 76  1  0  0  0  0
 20 21  1  0  0  0  0
 20 77  1  0  0  0  0
 20 78  1  0  0  0  0
 21 79  1  0  0  0  0
 21 80  1  0  0  0  0
 22 23  1  0  0  0  0
 22 81  1  0  0  0  0
 23 24  1  0  0  0  0
 23 26  1  0  0  0  0
 23 82  1  6  0  0  0
 24 25  2  0  0  0  0
 24 29  1  0  0  0  0
 26 27  1  0  0  0  0
 26 28  1  0  0  0  0
 26 83  1  1  0  0  0
 27 84  1  0  0  0  0
 28 85  1  0  0  0  0
 28 86  1  0  0  0  0
 28 87  1  0  0  0  0
 29 30  1  0  0  0  0
 29 88  1  0  0  0  0
 30 31  1  0  0  0  0
 30 33  1  0  0  0  0
 30 89  1  1  0  0  0
 31 32  2  0  0  0  0
 31 35  1  0  0  0  0
 33 34  1  0  0  0  0
 33 90  1  0  0  0  0
 33 91  1  0  0  0  0
 34 92  1  0  0  0  0
 35 36  1  0  0  0  0
 35 93  1  0  0  0  0
 36 37  1  0  0  0  0
 36 39  1  0  0  0  0
 36 94  1  6  0  0  0
 37 38  2  0  0  0  0
 37 53  1  0  0  0  0
 39 40  1  0  0  0  0
 39 95  1  0  0  0  0
 39 96  1  0  0  0  0
 40 41  1  0  0  0  0
 40 97  1  0  0  0  0
 40 98  1  0  0  0  0
 41 42  1  0  0  0  0
 41 99  1  0  0  0  0
 41100  1  0  0  0  0
 42 43  1  0  0  0  0
 42101  1  0  0  0  0
 42102  1  0  0  0  0
 43 44  1  0  0  0  0
 43103  1  0  0  0  0
 44 45  2  0  0  0  0
 44 46  1  0  0  0  0
 46 47  2  0  0  0  0
 46 52  1  0  0  0  0
 47 48  1  0  0  0  0
 47104  1  0  0  0  0
 48 49  2  0  0  0  0
 48105  1  0  0  0  0
 49 50  1  0  0  0  0
 49 51  1  0  0  0  0
 51 52  2  0  0  0  0
 51106  1  0  0  0  0
 52107  1  0  0  0  0
 53 54  1  0  0  0  0
 53108  1  0  0  0  0
 54 55  1  0  0  0  0
 54 57  1  0  0  0  0
 54109  1  1  0  0  0
 55 56  1  0  0  0  0
 55 61  2  0  0  0  0
 57 58  1  0  0  0  0
 57 59  1  0  0  0  0
 57110  1  1  0  0  0
 58 60  1  0  0  0  0
 58111  1  0  0  0  0
 58112  1  0  0  0  0
 59113  1  0  0  0  0
 59114  1  0  0  0  0
 59115  1  0  0  0  0
 60116  1  0  0  0  0
 60117  1  0  0  0  0
 60118  1  0  0  0  0
M  CHG  2   1   1  56  -1
M  END
