4nnn_ligand
 OpenBabel08222323353D

 77 77  0  0  1  0  0  0  0  0999 V2000
   58.8420 -134.6280   34.9210 C   0  0  0  0  0  0  0  0  0  0  0  0
   58.7360 -135.8420   35.1050 O   0  0  0  0  0  0  0  0  0  0  0  0
   57.8130 -133.9160   34.3600 O   0  0  0  0  0  0  0  0  0  0  0  0
   56.7520 -134.6630   33.7800 C   0  0  0  0  0  0  0  0  0  0  0  0
   55.6330 -134.4450   34.6010 C   0  0  0  0  0  0  0  0  0  0  0  0
   54.7010 -133.4510   34.2890 C   0  0  0  0  0  0  0  0  0  0  0  0
   53.5900 -133.2410   35.1030 C   0  0  0  0  0  0  0  0  0  0  0  0
   53.3990 -134.0250   36.2370 C   0  0  0  0  0  0  0  0  0  0  0  0
   54.3220 -135.0180   36.5540 C   0  0  0  0  0  0  0  0  0  0  0  0
   55.4330 -135.2280   35.7390 C   0  0  0  0  0  0  0  0  0  0  0  0
   59.9790 -133.9940   35.2790 N   0  0  0  0  0  0  0  0  0  0  0  0
   61.1080 -134.6970   35.9240 C   0  0  2  0  0  0  0  0  0  0  0  0
   60.7360 -134.9020   37.3970 C   0  0  0  0  0  0  0  0  0  0  0  0
   60.2690 -133.9730   38.0530 O   0  0  0  0  0  0  0  0  0  0  0  0
   62.4090 -133.9210   35.8590 C   0  0  0  0  0  0  0  0  0  0  0  0
   62.7140 -133.5480   34.3900 C   0  0  0  0  0  0  0  0  0  0  0  0
   64.0650 -132.8690   34.3300 C   0  0  0  0  0  0  0  0  0  0  0  0
   62.7750 -134.7460   33.4590 C   0  0  0  0  0  0  0  0  0  0  0  0
   60.9540 -136.1380   37.8760 N   0  0  0  0  0  0  0  0  0  0  0  0
   60.6260 -136.5230   39.2610 C   0  0  2  0  0  0  0  0  0  0  0  0
   61.8870 -136.5110   40.1380 C   0  0  0  0  0  0  0  0  0  0  0  0
   62.8960 -137.1140   39.7770 O   0  0  0  0  0  0  0  0  0  0  0  0
   60.0380 -137.9520   39.2260 C   0  0  0  0  0  0  0  0  0  0  0  0
   58.7040 -138.0980   39.9850 C   0  0  0  0  0  0  0  0  0  0  0  0
   57.6840 -137.0300   39.5600 C   0  0  0  0  0  0  0  0  0  0  0  0
   58.9480 -138.0360   41.4980 C   0  0  0  0  0  0  0  0  0  0  0  0
   61.7900 -135.8270   41.2970 N   0  0  0  0  0  0  0  0  0  0  0  0
   62.9000 -135.7770   42.2660 C   0  0  2  0  0  0  0  0  0  0  0  0
   62.6940 -136.9440   43.2510 C   0  0  0  0  0  0  0  0  0  0  0  0
   62.9330 -134.4360   43.0300 C   0  0  0  0  0  0  0  0  0  0  0  0
   63.1240 -133.2260   42.1070 C   0  0  0  0  0  0  0  0  0  0  0  0
   63.1670 -131.9560   42.9630 C   0  0  0  0  0  0  0  0  0  0  0  0
   64.4220 -133.3340   41.3000 C   0  0  0  0  0  0  0  0  0  0  0  0
   61.5410 -136.6840   44.0670 O   0  0  0  0  0  0  0  0  0  0  0  0
   57.0061 -135.7330   33.7560 H   0  0  0  0  0  0  0  0  0  0  0  0
   56.5506 -134.3109   32.7576 H   0  0  0  0  0  0  0  0  0  0  0  0
   54.8439 -132.8384   33.4062 H   0  0  0  0  0  0  0  0  0  0  0  0
   52.8739 -132.4665   34.8530 H   0  0  0  0  0  0  0  0  0  0  0  0
   52.5348 -133.8631   36.8711 H   0  0  0  0  0  0  0  0  0  0  0  0
   54.1762 -135.6295   37.4371 H   0  0  0  0  0  0  0  0  0  0  0  0
   56.1464 -136.0045   35.9906 H   0  0  0  0  0  0  0  0  0  0  0  0
   60.0603 -133.0133   35.1014 H   0  0  0  0  0  0  0  0  0  0  0  0
   61.2515 -135.6711   35.4335 H   0  0  0  0  0  0  0  0  0  0  0  0
   63.2259 -134.5409   36.2570 H   0  0  0  0  0  0  0  0  0  0  0  0
   62.3190 -133.0035   36.4591 H   0  0  0  0  0  0  0  0  0  0  0  0
   61.9333 -132.8596   34.0340 H   0  0  0  0  0  0  0  0  0  0  0  0
   64.2935 -132.5985   33.2885 H   0  0  0  0  0  0  0  0  0  0  0  0
   64.8372 -133.5548   34.7085 H   0  0  0  0  0  0  0  0  0  0  0  0
   64.0464 -131.9601   34.9492 H   0  0  0  0  0  0  0  0  0  0  0  0
   61.8082 -135.2706   33.4727 H   0  0  0  0  0  0  0  0  0  0  0  0
   63.5683 -135.4305   33.7937 H   0  0  0  0  0  0  0  0  0  0  0  0
   62.9925 -134.4048   32.4361 H   0  0  0  0  0  0  0  0  0  0  0  0
   61.3547 -136.8243   37.2690 H   0  0  0  0  0  0  0  0  0  0  0  0
   59.8861 -135.8226   39.6757 H   0  0  0  0  0  0  0  0  0  0  0  0
   60.7697 -138.6386   39.6767 H   0  0  0  0  0  0  0  0  0  0  0  0
   59.8710 -138.2321   38.1755 H   0  0  0  0  0  0  0  0  0  0  0  0
   58.2817 -139.0847   39.7439 H   0  0  0  0  0  0  0  0  0  0  0  0
   56.7499 -137.1702   40.1238 H   0  0  0  0  0  0  0  0  0  0  0  0
   57.4802 -137.1255   38.4833 H   0  0  0  0  0  0  0  0  0  0  0  0
   58.0917 -136.0299   39.7688 H   0  0  0  0  0  0  0  0  0  0  0  0
   59.6795 -138.8064   41.7833 H   0  0  0  0  0  0  0  0  0  0  0  0
   58.0017 -138.2143   42.0297 H   0  0  0  0  0  0  0  0  0  0  0  0
   59.3379 -137.0430   41.7662 H   0  0  0  0  0  0  0  0  0  0  0  0
   60.9414 -135.3403   41.5045 H   0  0  0  0  0  0  0  0  0  0  0  0
   63.8544 -135.9048   41.7343 H   0  0  0  0  0  0  0  0  0  0  0  0
   63.5821 -137.0436   43.8924 H   0  0  0  0  0  0  0  0  0  0  0  0
   62.5418 -137.8766   42.6879 H   0  0  0  0  0  0  0  0  0  0  0  0
   63.7645 -134.4627   43.7497 H   0  0  0  0  0  0  0  0  0  0  0  0
   61.9829 -134.3174   43.5715 H   0  0  0  0  0  0  0  0  0  0  0  0
   62.2748 -133.1697   41.4101 H   0  0  0  0  0  0  0  0  0  0  0  0
   63.3038 -131.0797   42.3123 H   0  0  0  0  0  0  0  0  0  0  0  0
   64.0051 -132.0202   43.6725 H   0  0  0  0  0  0  0  0  0  0  0  0
   62.2230 -131.8562   43.5187 H   0  0  0  0  0  0  0  0  0  0  0  0
   64.3958 -134.2447   40.6836 H   0  0  0  0  0  0  0  0  0  0  0  0
   65.2788 -133.3817   41.9882 H   0  0  0  0  0  0  0  0  0  0  0  0
   64.5233 -132.4533   40.6488 H   0  0  0  0  0  0  0  0  0  0  0  0
   61.4150 -137.4040   44.6738 H   0  0  0  0  0  0  0  0  0  0  0  0
  1  2  2  0  0  0  0
  1  3  1  0  0  0  0
  1 11  1  0  0  0  0
  3  4  1  0  0  0  0
  4  5  1  0  0  0  0
  4 35  1  0  0  0  0
  4 36  1  0  0  0  0
  5  6  2  0  0  0  0
  5 10  1  0  0  0  0
  6  7  1  0  0  0  0
  6 37  1  0  0  0  0
  7  8  2  0  0  0  0
  7 38  1  0  0  0  0
  8  9  1  0  0  0  0
  8 39  1  0  0  0  0
  9 10  2  0  0  0  0
  9 40  1  0  0  0  0
 10 41  1  0  0  0  0
 11 12  1  0  0  0  0
 11 42  1  0  0  0  0
 12 13  1  0  0  0  0
 12 15  1  0  0  0  0
 12 43  1  6  0  0  0
 13 14  2  0  0  0  0
 13 19  1  0  0  0  0
 15 16  1  0  0  0  0
 15 44  1  0  0  0  0
 15 45  1  0  0  0  0
 16 17  1  0  0  0  0
 16 18  1  0  0  0  0
 16 46  1  0  0  0  0
 17 47  1  0  0  0  0
 17 48  1  0  0  0  0
 17 49  1  0  0  0  0
 18 50  1  0  0  0  0
 18 51  1  0  0  0  0
 18 52  1  0  0  0  0
 19 20  1  0  0  0  0
 19 53  1  0  0  0  0
 20 21  1  0  0  0  0
 20 23  1  0  0  0  0
 20 54  1  1  0  0  0
 21 22  2  0  0  0  0
 21 27  1  0  0  0  0
 23 24  1  0  0  0  0
 23 55  1  0  0  0  0
 23 56  1  0  0  0  0
 24 25  1  0  0  0  0
 24 26  1  0  0  0  0
 24 57  1  0  0  0  0
 25 58  1  0  0  0  0
 25 59  1  0  0  0  0
 25 60  1  0  0  0  0
 26 61  1  0  0  0  0
 26 62  1  0  0  0  0
 26 63  1  0  0  0  0
 27 28  1  0  0  0  0
 27 64  1  0  0  0  0
 28 29  1  0  0  0  0
 28 30  1  0  0  0  0
 28 65  1  6  0  0  0
 29 34  1  0  0  0  0
 29 66  1  0  0  0  0
 29 67  1  0  0  0  0
 30 31  1  0  0  0  0
 30 68  1  0  0  0  0
 30 69  1  0  0  0  0
 31 32  1  0  0  0  0
 31 33  1  0  0  0  0
 31 70  1  0  0  0  0
 32 71  1  0  0  0  0
 32 72  1  0  0  0  0
 32 73  1  0  0  0  0
 33 74  1  0  0  0  0
 33 75  1  0  0  0  0
 33 76  1  0  0  0  0
 34 77  1  0  0  0  0
M  END
