4nnw_ligand
 OpenBabel08222323353D

 80 80  0  0  1  0  0  0  0  0999 V2000
   58.9940 -135.5500   35.2480 C   0  0  0  0  0  0  0  0  0  0  0  0
   58.9060 -136.7710   35.3980 O   0  0  0  0  0  0  0  0  0  0  0  0
   57.9450 -134.8150   34.7500 O   0  0  0  0  0  0  0  0  0  0  0  0
   56.9690 -135.5200   33.9920 C   0  0  0  0  0  0  0  0  0  0  0  0
   55.7050 -135.1170   34.4730 C   0  0  0  0  0  0  0  0  0  0  0  0
   55.4290 -135.1310   35.8440 C   0  0  0  0  0  0  0  0  0  0  0  0
   54.1750 -134.7410   36.3170 C   0  0  0  0  0  0  0  0  0  0  0  0
   53.1830 -134.3380   35.4270 C   0  0  0  0  0  0  0  0  0  0  0  0
   53.4470 -134.3270   34.0600 C   0  0  0  0  0  0  0  0  0  0  0  0
   54.6990 -134.7170   33.5870 C   0  0  0  0  0  0  0  0  0  0  0  0
   60.1280 -134.9130   35.5960 N   0  0  0  0  0  0  0  0  0  0  0  0
   61.2850 -135.6220   36.1730 C   0  0  2  0  0  0  0  0  0  0  0  0
   60.9830 -135.9140   37.6480 C   0  0  0  0  0  0  0  0  0  0  0  0
   60.3690 -135.0880   38.3240 O   0  0  0  0  0  0  0  0  0  0  0  0
   62.5330 -134.7410   36.0930 C   0  0  0  0  0  0  0  0  0  0  0  0
   62.9730 -134.5450   34.6370 C   0  0  0  0  0  0  0  0  0  0  0  0
   63.8930 -135.6900   34.2160 C   0  0  0  0  0  0  0  0  0  0  0  0
   63.7220 -133.2160   34.5030 C   0  0  0  0  0  0  0  0  0  0  0  0
   61.4200 -137.0960   38.1200 N   0  0  0  0  0  0  0  0  0  0  0  0
   61.1940 -137.5030   39.5210 C   0  0  2  0  0  0  0  0  0  0  0  0
   62.4760 -137.2640   40.3300 C   0  0  0  0  0  0  0  0  0  0  0  0
   63.5870 -137.3710   39.8150 O   0  0  0  0  0  0  0  0  0  0  0  0
   60.7570 -138.9710   39.5810 C   0  0  0  0  0  0  0  0  0  0  0  0
   59.5910 -139.1460   40.5690 C   0  0  0  0  0  0  0  0  0  0  0  0
   59.3290 -140.6470   40.7440 C   0  0  0  0  0  0  0  0  0  0  0  0
   58.3210 -138.4430   40.0530 C   0  0  0  0  0  0  0  0  0  0  0  0
   64.3180 -134.1400   42.3080 C   0  0  0  0  0  0  0  0  0  0  0  0
   63.7650 -138.7400   43.6890 C   0  0  0  0  0  0  0  0  0  0  0  0
   63.2360 -137.2920   43.8530 C   0  0  2  0  0  0  0  0  0  0  0  0
   61.8510 -137.2850   44.2790 O   0  0  0  0  0  0  0  0  0  0  0  0
   63.3370 -136.5260   42.5190 C   0  0  2  0  0  0  0  0  0  0  0  0
   63.1170 -135.0060   42.7020 C   0  0  0  0  0  0  0  0  0  0  0  0
   63.9170 -132.6610   42.4510 C   0  0  0  0  0  0  0  0  0  0  0  0
   64.7640 -134.4280   40.8640 C   0  0  0  0  0  0  0  0  0  0  0  0
   62.2610 -136.9220   41.6070 N   0  0  0  0  0  0  0  0  0  0  0  0
   57.0965 -136.6042   34.1266 H   0  0  0  0  0  0  0  0  0  0  0  0
   57.0651 -135.2691   32.9253 H   0  0  0  0  0  0  0  0  0  0  0  0
   56.1941 -135.4468   36.5440 H   0  0  0  0  0  0  0  0  0  0  0  0
   53.9726 -134.7519   37.3819 H   0  0  0  0  0  0  0  0  0  0  0  0
   52.2102 -134.0344   35.7965 H   0  0  0  0  0  0  0  0  0  0  0  0
   52.6780 -134.0148   33.3626 H   0  0  0  0  0  0  0  0  0  0  0  0
   54.8952 -134.7102   32.5209 H   0  0  0  0  0  0  0  0  0  0  0  0
   60.1877 -133.9243   35.4583 H   0  0  0  0  0  0  0  0  0  0  0  0
   61.4573 -136.5620   35.6283 H   0  0  0  0  0  0  0  0  0  0  0  0
   63.3487 -135.2204   36.6541 H   0  0  0  0  0  0  0  0  0  0  0  0
   62.3099 -133.7596   36.5369 H   0  0  0  0  0  0  0  0  0  0  0  0
   62.0858 -134.5320   33.9869 H   0  0  0  0  0  0  0  0  0  0  0  0
   64.2053 -135.5442   33.1714 H   0  0  0  0  0  0  0  0  0  0  0  0
   63.3553 -136.6452   34.3080 H   0  0  0  0  0  0  0  0  0  0  0  0
   64.7807 -135.7048   34.8654 H   0  0  0  0  0  0  0  0  0  0  0  0
   63.0610 -132.3905   34.8057 H   0  0  0  0  0  0  0  0  0  0  0  0
   64.0314 -133.0733   33.4571 H   0  0  0  0  0  0  0  0  0  0  0  0
   64.6115 -133.2295   35.1499 H   0  0  0  0  0  0  0  0  0  0  0  0
   61.9104 -137.7145   37.5060 H   0  0  0  0  0  0  0  0  0  0  0  0
   60.3904 -136.8837   39.9461 H   0  0  0  0  0  0  0  0  0  0  0  0
   61.6059 -139.5883   39.9100 H   0  0  0  0  0  0  0  0  0  0  0  0
   60.4349 -139.2940   38.5801 H   0  0  0  0  0  0  0  0  0  0  0  0
   59.8699 -138.7087   41.5390 H   0  0  0  0  0  0  0  0  0  0  0  0
   58.4970 -140.7943   41.4483 H   0  0  0  0  0  0  0  0  0  0  0  0
   60.2334 -141.1336   41.1380 H   0  0  0  0  0  0  0  0  0  0  0  0
   59.0686 -141.0897   39.7712 H   0  0  0  0  0  0  0  0  0  0  0  0
   58.5206 -137.3681   39.9314 H   0  0  0  0  0  0  0  0  0  0  0  0
   57.5041 -138.5847   40.7758 H   0  0  0  0  0  0  0  0  0  0  0  0
   58.0315 -138.8741   39.0833 H   0  0  0  0  0  0  0  0  0  0  0  0
   65.1559 -134.3572   42.9867 H   0  0  0  0  0  0  0  0  0  0  0  0
   64.8161 -138.7119   43.3657 H   0  0  0  0  0  0  0  0  0  0  0  0
   63.1632 -139.2670   42.9340 H   0  0  0  0  0  0  0  0  0  0  0  0
   63.6912 -139.2685   44.6509 H   0  0  0  0  0  0  0  0  0  0  0  0
   63.8467 -136.7793   44.6108 H   0  0  0  0  0  0  0  0  0  0  0  0
   61.5538 -136.3874   44.3712 H   0  0  0  0  0  0  0  0  0  0  0  0
   64.3210 -136.7204   42.0674 H   0  0  0  0  0  0  0  0  0  0  0  0
   62.2587 -134.7058   42.0830 H   0  0  0  0  0  0  0  0  0  0  0  0
   62.8892 -134.8166   43.7613 H   0  0  0  0  0  0  0  0  0  0  0  0
   64.7677 -132.0219   42.1721 H   0  0  0  0  0  0  0  0  0  0  0  0
   63.6319 -132.4575   43.4937 H   0  0  0  0  0  0  0  0  0  0  0  0
   63.0648 -132.4465   41.7893 H   0  0  0  0  0  0  0  0  0  0  0  0
   65.0483 -135.4867   40.7723 H   0  0  0  0  0  0  0  0  0  0  0  0
   65.6270 -133.7936   40.6133 H   0  0  0  0  0  0  0  0  0  0  0  0
   63.9357 -134.2097   40.1739 H   0  0  0  0  0  0  0  0  0  0  0  0
   61.3232 -136.9377   41.9538 H   0  0  0  0  0  0  0  0  0  0  0  0
  1  2  2  0  0  0  0
  1  3  1  0  0  0  0
  3  4  1  0  0  0  0
  4  5  1  0  0  0  0
  4 36  1  0  0  0  0
  4 37  1  0  0  0  0
  5  6  2  0  0  0  0
  5 10  1  0  0  0  0
  6  7  1  0  0  0  0
  6 38  1  0  0  0  0
  7  8  2  0  0  0  0
  7 39  1  0  0  0  0
  8 40  1  0  0  0  0
  9  8  1  0  0  0  0
  9 41  1  0  0  0  0
 10  9  2  0  0  0  0
 10 42  1  0  0  0  0
 11  1  1  0  0  0  0
 11 43  1  0  0  0  0
 12 11  1  0  0  0  0
 12 15  1  0  0  0  0
 12 44  1  6  0  0  0
 13 12  1  0  0  0  0
 13 14  2  0  0  0  0
 15 16  1  0  0  0  0
 15 45  1  0  0  0  0
 15 46  1  0  0  0  0
 16 17  1  0  0  0  0
 16 18  1  0  0  0  0
 16 47  1  0  0  0  0
 17 48  1  0  0  0  0
 17 49  1  0  0  0  0
 17 50  1  0  0  0  0
 18 51  1  0  0  0  0
 18 52  1  0  0  0  0
 18 53  1  0  0  0  0
 19 13  1  0  0  0  0
 19 54  1  0  0  0  0
 20 19  1  0  0  0  0
 20 23  1  0  0  0  0
 20 55  1  1  0  0  0
 21 20  1  0  0  0  0
 21 22  2  0  0  0  0
 23 24  1  0  0  0  0
 23 56  1  0  0  0  0
 23 57  1  0  0  0  0
 24 25  1  0  0  0  0
 24 26  1  0  0  0  0
 24 58  1  0  0  0  0
 25 59  1  0  0  0  0
 25 60  1  0  0  0  0
 25 61  1  0  0  0  0
 26 62  1  0  0  0  0
 26 63  1  0  0  0  0
 26 64  1  0  0  0  0
 27 33  1  0  0  0  0
 27 34  1  0  0  0  0
 27 65  1  0  0  0  0
 28 66  1  0  0  0  0
 28 67  1  0  0  0  0
 28 68  1  0  0  0  0
 29 28  1  0  0  0  0
 29 30  1  0  0  0  0
 29 69  1  1  0  0  0
 30 70  1  0  0  0  0
 31 29  1  0  0  0  0
 31 32  1  0  0  0  0
 31 35  1  0  0  0  0
 31 71  1  6  0  0  0
 32 27  1  0  0  0  0
 32 72  1  0  0  0  0
 32 73  1  0  0  0  0
 33 74  1  0  0  0  0
 33 75  1  0  0  0  0
 33 76  1  0  0  0  0
 34 77  1  0  0  0  0
 34 78  1  0  0  0  0
 34 79  1  0  0  0  0
 35 21  1  0  0  0  0
 35 80  1  0  0  0  0
M  END
