4no8_ligand
 OpenBabel08222323353D

 91 92  0  0  1  0  0  0  0  0999 V2000
   10.8910 -137.1200   22.0140 C   0  0  0  0  0  0  0  0  0  0  0  0
   11.3710 -138.2320   21.7840 O   0  0  0  0  0  0  0  0  0  0  0  0
   11.1680 -136.4750   23.1870 O   0  0  0  0  0  0  0  0  0  0  0  0
   12.5540 -136.4170   23.5760 C   0  0  0  0  0  0  0  0  0  0  0  0
   12.6450 -136.5540   24.9660 C   0  0  0  0  0  0  0  0  0  0  0  0
   12.2960 -137.7640   25.5710 C   0  0  0  0  0  0  0  0  0  0  0  0
   12.3810 -137.9150   26.9550 C   0  0  0  0  0  0  0  0  0  0  0  0
   12.8170 -136.8500   27.7420 C   0  0  0  0  0  0  0  0  0  0  0  0
   13.1660 -135.6400   27.1440 C   0  0  0  0  0  0  0  0  0  0  0  0
   13.0810 -135.4900   25.7590 C   0  0  0  0  0  0  0  0  0  0  0  0
   10.0610 -136.5410   21.1260 N   0  0  0  0  0  0  0  0  0  0  0  0
    9.6910 -137.1970   19.8590 C   0  0  2  0  0  0  0  0  0  0  0  0
   10.7810 -137.0120   18.8060 C   0  0  0  0  0  0  0  0  0  0  0  0
   11.4620 -135.9890   18.7650 O   0  0  0  0  0  0  0  0  0  0  0  0
    8.3990 -136.5930   19.2920 C   0  0  0  0  0  0  0  0  0  0  0  0
    7.2140 -136.7710   20.2480 C   0  0  0  0  0  0  0  0  0  0  0  0
    5.9530 -136.2280   19.5700 C   0  0  0  0  0  0  0  0  0  0  0  0
    7.0040 -138.2470   20.6050 C   0  0  0  0  0  0  0  0  0  0  0  0
   10.8830 -138.0380   17.9480 N   0  0  0  0  0  0  0  0  0  0  0  0
   11.8360 -138.0630   16.8330 C   0  0  2  0  0  0  0  0  0  0  0  0
   11.0040 -138.0860   15.5540 C   0  0  0  0  0  0  0  0  0  0  0  0
    9.9980 -138.7890   15.4890 O   0  0  0  0  0  0  0  0  0  0  0  0
   12.6890 -139.3370   16.9290 C   0  0  0  0  0  0  0  0  0  0  0  0
   14.1590 -138.9900   17.1940 C   0  0  0  0  0  0  0  0  0  0  0  0
   14.3390 -138.4760   18.6330 C   0  0  0  0  0  0  0  0  0  0  0  0
   15.0120 -140.2470   16.9780 C   0  0  0  0  0  0  0  0  0  0  0  0
   11.2290 -138.3660   12.3290 C   0  0  1  0  0  0  0  0  0  0  0  0
   10.7600 -139.6230   12.8230 O   0  0  0  0  0  0  0  0  0  0  0  0
   10.6980 -137.2590   13.2720 C   0  0  2  0  0  0  0  0  0  0  0  0
   10.8030 -135.8980   12.6100 C   0  0  0  0  0  0  0  0  0  0  0  0
   10.2640 -134.7970   13.5630 C   0  0  0  0  0  0  0  0  0  0  0  0
   10.1540 -133.5060   12.7880 C   0  0  0  0  0  0  0  0  0  0  0  0
    8.8810 -135.0940   14.1100 C   0  0  0  0  0  0  0  0  0  0  0  0
   11.4300 -137.3020   14.5510 N   0  0  0  0  0  0  0  0  0  0  0  0
   12.7780 -138.4090   12.2930 C   0  0  0  0  0  0  0  0  0  0  0  0
   13.4380 -137.3740   12.2050 O   0  0  0  0  0  0  0  0  0  0  0  0
   14.6310 -139.8460   12.3090 C   0  0  0  0  0  0  0  0  0  0  0  0
   15.4780 -139.2060   11.3940 C   0  0  0  0  0  0  0  0  0  0  0  0
   16.8490 -139.4570   11.4160 C   0  0  0  0  0  0  0  0  0  0  0  0
   17.3810 -140.3560   12.3400 C   0  0  0  0  0  0  0  0  0  0  0  0
   16.5400 -141.0020   13.2460 C   0  0  0  0  0  0  0  0  0  0  0  0
   15.1710 -140.7500   13.2240 C   0  0  0  0  0  0  0  0  0  0  0  0
   13.3050 -139.6550   12.3340 N   0  0  0  0  0  0  0  0  0  0  0  0
   12.9818 -135.4502   23.2723 H   0  0  0  0  0  0  0  0  0  0  0  0
   13.1080 -137.2326   23.0883 H   0  0  0  0  0  0  0  0  0  0  0  0
   11.9564 -138.5923   24.9598 H   0  0  0  0  0  0  0  0  0  0  0  0
   12.1090 -138.8571   27.4171 H   0  0  0  0  0  0  0  0  0  0  0  0
   12.8846 -136.9627   28.8180 H   0  0  0  0  0  0  0  0  0  0  0  0
   13.5046 -134.8126   27.7570 H   0  0  0  0  0  0  0  0  0  0  0  0
   13.3535 -134.5473   25.2985 H   0  0  0  0  0  0  0  0  0  0  0  0
    9.6839 -135.6381   21.3324 H   0  0  0  0  0  0  0  0  0  0  0  0
    9.5425 -138.2706   20.0468 H   0  0  0  0  0  0  0  0  0  0  0  0
    8.1637 -137.0888   18.3387 H   0  0  0  0  0  0  0  0  0  0  0  0
    8.5561 -135.5184   19.1175 H   0  0  0  0  0  0  0  0  0  0  0  0
    7.4075 -136.2043   21.1707 H   0  0  0  0  0  0  0  0  0  0  0  0
    5.0928 -136.3490   20.2449 H   0  0  0  0  0  0  0  0  0  0  0  0
    5.7692 -136.7836   18.6386 H   0  0  0  0  0  0  0  0  0  0  0  0
    6.0910 -135.1613   19.3395 H   0  0  0  0  0  0  0  0  0  0  0  0
    7.9091 -138.6387   21.0922 H   0  0  0  0  0  0  0  0  0  0  0  0
    6.8034 -138.8210   19.6884 H   0  0  0  0  0  0  0  0  0  0  0  0
    6.1489 -138.3404   21.2906 H   0  0  0  0  0  0  0  0  0  0  0  0
   10.2793 -138.8251   18.0747 H   0  0  0  0  0  0  0  0  0  0  0  0
   12.4840 -137.1744   16.8553 H   0  0  0  0  0  0  0  0  0  0  0  0
   12.6147 -139.8928   15.9827 H   0  0  0  0  0  0  0  0  0  0  0  0
   12.3121 -139.9621   17.7519 H   0  0  0  0  0  0  0  0  0  0  0  0
   14.4791 -138.2071   16.4907 H   0  0  0  0  0  0  0  0  0  0  0  0
   15.3977 -138.2322   18.8055 H   0  0  0  0  0  0  0  0  0  0  0  0
   14.0216 -139.2541   19.3427 H   0  0  0  0  0  0  0  0  0  0  0  0
   13.7265 -137.5741   18.7795 H   0  0  0  0  0  0  0  0  0  0  0  0
   14.8781 -140.6083   15.9477 H   0  0  0  0  0  0  0  0  0  0  0  0
   14.6978 -141.0293   17.6846 H   0  0  0  0  0  0  0  0  0  0  0  0
   16.0716 -140.0046   17.1467 H   0  0  0  0  0  0  0  0  0  0  0  0
   10.8471 -138.1923   11.3122 H   0  0  0  0  0  0  0  0  0  0  0  0
   11.0857 -139.7567   13.7053 H   0  0  0  0  0  0  0  0  0  0  0  0
    9.6356 -137.4569   13.4772 H   0  0  0  0  0  0  0  0  0  0  0  0
   10.2112 -135.8980   11.6828 H   0  0  0  0  0  0  0  0  0  0  0  0
   11.8566 -135.6894   12.3725 H   0  0  0  0  0  0  0  0  0  0  0  0
   10.9662 -134.6783   14.4013 H   0  0  0  0  0  0  0  0  0  0  0  0
    9.7730 -132.7132   13.4485 H   0  0  0  0  0  0  0  0  0  0  0  0
    9.4629 -133.6431   11.9433 H   0  0  0  0  0  0  0  0  0  0  0  0
   11.1460 -133.2210   12.4076 H   0  0  0  0  0  0  0  0  0  0  0  0
    8.9080 -136.0307   14.6861 H   0  0  0  0  0  0  0  0  0  0  0  0
    8.1711 -135.1968   13.2761 H   0  0  0  0  0  0  0  0  0  0  0  0
    8.5608 -134.2700   14.7646 H   0  0  0  0  0  0  0  0  0  0  0  0
   12.2502 -136.7429   14.6723 H   0  0  0  0  0  0  0  0  0  0  0  0
   15.0662 -138.5145   10.6678 H   0  0  0  0  0  0  0  0  0  0  0  0
   17.5028 -138.9526   10.7137 H   0  0  0  0  0  0  0  0  0  0  0  0
   18.4470 -140.5525   12.3541 H   0  0  0  0  0  0  0  0  0  0  0  0
   16.9519 -141.6995   13.9664 H   0  0  0  0  0  0  0  0  0  0  0  0
   14.5192 -141.2605   13.9237 H   0  0  0  0  0  0  0  0  0  0  0  0
   12.6949 -140.4458   12.3838 H   0  0  0  0  0  0  0  0  0  0  0  0
  1  2  2  0  0  0  0
  1  3  1  0  0  0  0
  3  4  1  0  0  0  0
  4  5  1  0  0  0  0
  4 44  1  0  0  0  0
  4 45  1  0  0  0  0
  5  6  2  0  0  0  0
  5 10  1  0  0  0  0
  6  7  1  0  0  0  0
  6 46  1  0  0  0  0
  7  8  2  0  0  0  0
  7 47  1  0  0  0  0
  8 48  1  0  0  0  0
  9  8  1  0  0  0  0
  9 49  1  0  0  0  0
 10  9  2  0  0  0  0
 10 50  1  0  0  0  0
 11  1  1  0  0  0  0
 11 51  1  0  0  0  0
 12 11  1  0  0  0  0
 12 15  1  0  0  0  0
 12 52  1  1  0  0  0
 13 12  1  0  0  0  0
 13 14  2  0  0  0  0
 15 16  1  0  0  0  0
 15 53  1  0  0  0  0
 15 54  1  0  0  0  0
 16 17  1  0  0  0  0
 16 18  1  0  0  0  0
 16 55  1  0  0  0  0
 17 56  1  0  0  0  0
 17 57  1  0  0  0  0
 17 58  1  0  0  0  0
 18 59  1  0  0  0  0
 18 60  1  0  0  0  0
 18 61  1  0  0  0  0
 19 13  1  0  0  0  0
 19 62  1  0  0  0  0
 20 19  1  0  0  0  0
 20 23  1  0  0  0  0
 20 63  1  1  0  0  0
 21 20  1  0  0  0  0
 21 22  2  0  0  0  0
 23 24  1  0  0  0  0
 23 64  1  0  0  0  0
 23 65  1  0  0  0  0
 24 25  1  0  0  0  0
 24 26  1  0  0  0  0
 24 66  1  0  0  0  0
 25 67  1  0  0  0  0
 25 68  1  0  0  0  0
 25 69  1  0  0  0  0
 26 70  1  0  0  0  0
 26 71  1  0  0  0  0
 26 72  1  0  0  0  0
 27 28  1  0  0  0  0
 27 29  1  0  0  0  0
 27 73  1  6  0  0  0
 28 74  1  0  0  0  0
 29 30  1  0  0  0  0
 29 34  1  0  0  0  0
 29 75  1  1  0  0  0
 30 31  1  0  0  0  0
 30 76  1  0  0  0  0
 30 77  1  0  0  0  0
 31 32  1  0  0  0  0
 31 33  1  0  0  0  0
 31 78  1  0  0  0  0
 32 79  1  0  0  0  0
 32 80  1  0  0  0  0
 32 81  1  0  0  0  0
 33 82  1  0  0  0  0
 33 83  1  0  0  0  0
 33 84  1  0  0  0  0
 34 21  1  0  0  0  0
 34 85  1  0  0  0  0
 35 27  1  0  0  0  0
 35 36  2  0  0  0  0
 37 38  2  0  0  0  0
 37 42  1  0  0  0  0
 37 43  1  0  0  0  0
 38 39  1  0  0  0  0
 38 86  1  0  0  0  0
 39 40  2  0  0  0  0
 39 87  1  0  0  0  0
 40 41  1  0  0  0  0
 40 88  1  0  0  0  0
 41 42  2  0  0  0  0
 41 89  1  0  0  0  0
 42 90  1  0  0  0  0
 43 35  1  0  0  0  0
 43 91  1  0  0  0  0
M  END
