4nrb_ligand
 OpenBabel08222323353D

 34 35  0  0  0  0  0  0  0  0999 V2000
   25.1110   11.3590    0.3980 C   0  0  0  0  0  0  0  0  0  0  0  0
   26.2190   10.3390    0.4200 N   0  0  0  0  0  0  0  0  0  0  0  0
   25.8590    8.9020    0.8110 C   0  0  0  0  0  0  0  0  0  0  0  0
   26.9650    7.8870    0.8310 C   0  0  0  0  0  0  0  0  0  0  0  0
   26.5710    6.5400    1.2560 C   0  0  0  0  0  0  0  0  0  0  0  0
   27.5480    5.5010    1.4040 C   0  0  0  0  0  0  0  0  0  0  0  0
   28.9260    5.7900    1.0130 C   0  0  0  0  0  0  0  0  0  0  0  0
   29.3580    7.0530    0.5520 C   0  0  0  0  0  0  0  0  0  0  0  0
   28.4130    8.1320    0.4610 C   0  0  0  0  0  0  0  0  0  0  0  0
   28.7950    9.3760    0.0180 O   0  0  0  0  0  0  0  0  0  0  0  0
   30.0170    9.8770   -0.2090 C   0  0  0  0  0  0  0  0  0  0  0  0
   29.9150   11.1030   -1.0370 C   0  0  0  0  0  0  0  0  0  0  0  0
   31.2920   11.7180   -1.2790 C   0  0  0  0  0  0  0  0  0  0  0  0
   31.8770   12.0040   -0.0060 O   0  0  0  0  0  0  0  0  0  0  0  0
   32.0340   10.7950    0.9620 C   0  0  0  0  0  0  0  0  0  0  0  0
   30.7210   10.0870    1.1070 C   0  0  0  0  0  0  0  0  0  0  0  0
   24.5650    8.6000    1.1280 O   0  0  0  0  0  0  0  0  0  0  0  0
   25.5186   12.3367    0.1015 H   0  0  0  0  0  0  0  0  0  0  0  0
   24.6642   11.4367    1.4001 H   0  0  0  0  0  0  0  0  0  0  0  0
   24.3411   11.0486   -0.3237 H   0  0  0  0  0  0  0  0  0  0  0  0
   27.1582   10.5913    0.1872 H   0  0  0  0  0  0  0  0  0  0  0  0
   25.5280    6.3271    1.4609 H   0  0  0  0  0  0  0  0  0  0  0  0
   27.2721    4.5283    1.7950 H   0  0  0  0  0  0  0  0  0  0  0  0
   29.6562    4.9917    1.0805 H   0  0  0  0  0  0  0  0  0  0  0  0
   30.3931    7.2073    0.2693 H   0  0  0  0  0  0  0  0  0  0  0  0
   30.5952    9.1374   -0.7822 H   0  0  0  0  0  0  0  0  0  0  0  0
   29.2803   11.8359   -0.5174 H   0  0  0  0  0  0  0  0  0  0  0  0
   29.4609   10.8460   -2.0054 H   0  0  0  0  0  0  0  0  0  0  0  0
   31.1895   12.6464   -1.8600 H   0  0  0  0  0  0  0  0  0  0  0  0
   31.9263   11.0084   -1.8305 H   0  0  0  0  0  0  0  0  0  0  0  0
   32.3648   11.1563    1.9469 H   0  0  0  0  0  0  0  0  0  0  0  0
   32.7821   10.0976    0.5570 H   0  0  0  0  0  0  0  0  0  0  0  0
   30.9014    9.1050    1.5687 H   0  0  0  0  0  0  0  0  0  0  0  0
   30.0702   10.6858    1.7611 H   0  0  0  0  0  0  0  0  0  0  0  0
  1  2  1  0  0  0  0
  1 18  1  0  0  0  0
  1 19  1  0  0  0  0
  1 20  1  0  0  0  0
  2  3  1  0  0  0  0
  2 21  1  0  0  0  0
  3  4  1  0  0  0  0
  3 17  2  0  0  0  0
  4  5  2  0  0  0  0
  4  9  1  0  0  0  0
  5  6  1  0  0  0  0
  5 22  1  0  0  0  0
  6  7  2  0  0  0  0
  6 23  1  0  0  0  0
  7  8  1  0  0  0  0
  7 24  1  0  0  0  0
  8  9  2  0  0  0  0
  8 25  1  0  0  0  0
  9 10  1  0  0  0  0
 10 11  1  0  0  0  0
 11 12  1  0  0  0  0
 11 16  1  0  0  0  0
 11 26  1  0  0  0  0
 12 13  1  0  0  0  0
 12 27  1  0  0  0  0
 12 28  1  0  0  0  0
 13 14  1  0  0  0  0
 13 29  1  0  0  0  0
 13 30  1  0  0  0  0
 14 15  1  0  0  0  0
 15 16  1  0  0  0  0
 15 31  1  0  0  0  0
 15 32  1  0  0  0  0
 16 33  1  0  0  0  0
 16 34  1  0  0  0  0
M  END
