4nrc_ligand
 OpenBabel08222323353D

 22 23  0  0  0  0  0  0  0  0999 V2000
  -24.7950  -11.5230    0.6430 C   0  0  0  0  0  0  0  0  0  0  0  0
  -25.9850  -10.7100    0.5590 N   0  0  0  0  0  0  0  0  0  0  0  0
  -25.8010   -9.2690    0.7590 C   0  0  0  0  0  0  0  0  0  0  0  0
  -26.9580   -8.3780    0.6470 C   0  0  0  0  0  0  0  0  0  0  0  0
  -28.3330   -8.8660    0.4190 C   0  0  0  0  0  0  0  0  0  0  0  0
  -29.2340   -7.7510    0.3340 C   0  0  0  0  0  0  0  0  0  0  0  0
  -28.4730   -6.4560    0.4910 C   0  0  0  0  0  0  0  0  0  0  0  0
  -26.8860   -6.7520    0.6870 S   0  0  0  0  0  0  0  0  0  0  0  0
  -30.5770   -7.9360    0.1470 O   0  0  0  0  0  0  0  0  0  0  0  0
  -31.0640   -9.2180   -0.0200 C   0  0  0  0  0  0  0  0  0  0  0  0
  -30.2270  -10.4050    0.4610 C   0  0  0  0  0  0  0  0  0  0  0  0
  -28.7830  -10.2480    0.3350 O   0  0  0  0  0  0  0  0  0  0  0  0
  -24.7190   -8.7390    0.9710 O   0  0  0  0  0  0  0  0  0  0  0  0
  -25.0591  -12.5778    0.4769 H   0  0  0  0  0  0  0  0  0  0  0  0
  -24.3437  -11.4106    1.6399 H   0  0  0  0  0  0  0  0  0  0  0  0
  -24.0754  -11.2001   -0.1238 H   0  0  0  0  0  0  0  0  0  0  0  0
  -26.8841  -11.1071    0.3748 H   0  0  0  0  0  0  0  0  0  0  0  0
  -28.9232   -5.4645    0.4752 H   0  0  0  0  0  0  0  0  0  0  0  0
  -31.2322   -9.3597   -1.0978 H   0  0  0  0  0  0  0  0  0  0  0  0
  -32.0261   -9.2676    0.5109 H   0  0  0  0  0  0  0  0  0  0  0  0
  -30.5240  -11.2880   -0.1239 H   0  0  0  0  0  0  0  0  0  0  0  0
  -30.4579  -10.5740    1.5231 H   0  0  0  0  0  0  0  0  0  0  0  0
  1  2  1  0  0  0  0
  1 14  1  0  0  0  0
  1 15  1  0  0  0  0
  1 16  1  0  0  0  0
  2  3  1  0  0  0  0
  2 17  1  0  0  0  0
  3  4  1  0  0  0  0
  3 13  2  0  0  0  0
  4  5  2  0  0  0  0
  4  8  1  0  0  0  0
  5  6  1  0  0  0  0
  5 12  1  0  0  0  0
  6  7  2  0  0  0  0
  6  9  1  0  0  0  0
  7  8  1  0  0  0  0
  7 18  1  0  0  0  0
  9 10  1  0  0  0  0
 10 11  1  0  0  0  0
 10 19  1  0  0  0  0
 10 20  1  0  0  0  0
 11 12  1  0  0  0  0
 11 21  1  0  0  0  0
 11 22  1  0  0  0  0
M  END
