4ntj_ligand
 OpenBabel08222323353D

 59 61  0  0  0  0  0  0  0  0999 V2000
   15.9210   94.1750   57.3890 C   0  0  0  0  0  0  0  0  0  0  0  0
   13.7710  100.3390   55.7690 C   0  0  0  0  0  0  0  0  0  0  0  0
   18.7320   97.5250   52.1240 N   0  0  0  0  0  0  0  0  0  0  0  0
   19.3140  103.0570   48.9460 O   0  0  0  0  0  0  0  0  0  0  0  0
   13.9550   97.9480   57.2890 O   0  0  0  0  0  0  0  0  0  0  0  0
   17.2190  106.0380   46.4550 O   0  0  0  0  0  0  0  0  0  0  0  0
   19.1540  105.9810   48.0450 O   0  0  0  0  0  0  0  0  0  0  0  0
   17.8800   97.9800   52.7570 C   0  0  0  0  0  0  0  0  0  0  0  0
   17.5640  101.5630   43.1690 C   0  0  0  0  0  0  0  0  0  0  0  0
   18.0810  102.7790   42.7150 C   0  0  0  0  0  0  0  0  0  0  0  0
   17.6190  101.2490   44.5310 C   0  0  0  0  0  0  0  0  0  0  0  0
   18.6560  103.6760   43.6240 C   0  0  0  0  0  0  0  0  0  0  0  0
   18.1880  102.1480   45.4390 C   0  0  0  0  0  0  0  0  0  0  0  0
   16.3670   97.8880   54.6700 C   0  0  0  0  0  0  0  0  0  0  0  0
   15.0310   95.2870   56.8260 C   0  0  0  0  0  0  0  0  0  0  0  0
   17.0380  102.9050   51.1080 C   0  0  0  0  0  0  0  0  0  0  0  0
   17.5770  100.7870   49.7120 C   0  0  0  0  0  0  0  0  0  0  0  0
   16.1740  102.0070   51.9960 C   0  0  0  0  0  0  0  0  0  0  0  0
   16.6730   99.9840   50.6710 C   0  0  0  0  0  0  0  0  0  0  0  0
   19.3190  104.2820   45.8810 C   0  0  0  0  0  0  0  0  0  0  0  0
   15.2540  100.2950   53.9820 N   0  0  0  0  0  0  0  0  0  0  0  0
   17.4270  104.0470   48.0910 N   0  0  0  0  0  0  0  0  0  0  0  0
   15.7140   96.5520   56.8950 O   0  0  0  0  0  0  0  0  0  0  0  0
   18.0870  103.1560   48.8540 C   0  0  0  0  0  0  0  0  0  0  0  0
   14.9350   97.6440   56.6050 C   0  0  0  0  0  0  0  0  0  0  0  0
   14.7980   99.6680   55.0910 C   0  0  0  0  0  0  0  0  0  0  0  0
   18.6840  103.3830   44.9960 C   0  0  0  0  0  0  0  0  0  0  0  0
   16.8140   98.5660   53.5360 C   0  0  0  0  0  0  0  0  0  0  0  0
   15.3500   98.4110   55.4850 C   0  0  0  0  0  0  0  0  0  0  0  0
   16.2130   99.7860   53.1770 C   0  0  0  0  0  0  0  0  0  0  0  0
   17.1430  102.2920   49.6980 C   0  0  0  0  0  0  0  0  0  0  0  0
   16.7030  100.6040   52.0280 N   0  0  0  0  0  0  0  0  0  0  0  0
   18.2510  105.1280   47.1410 S   0  0  0  0  0  0  0  0  0  0  0  0
   15.3884   93.2143   57.3308 H   0  0  0  0  0  0  0  0  0  0  0  0
   16.1644   94.3962   58.4387 H   0  0  0  0  0  0  0  0  0  0  0  0
   16.8493   94.1157   56.8019 H   0  0  0  0  0  0  0  0  0  0  0  0
   13.4702   99.7538   56.6505 H   0  0  0  0  0  0  0  0  0  0  0  0
   12.9078  100.4615   55.0983 H   0  0  0  0  0  0  0  0  0  0  0  0
   14.1290  101.3282   56.0904 H   0  0  0  0  0  0  0  0  0  0  0  0
   17.1215  100.8648   42.4677 H   0  0  0  0  0  0  0  0  0  0  0  0
   18.0371  103.0278   41.6608 H   0  0  0  0  0  0  0  0  0  0  0  0
   17.2191  100.3054   44.8841 H   0  0  0  0  0  0  0  0  0  0  0  0
   19.0833  104.6051   43.2644 H   0  0  0  0  0  0  0  0  0  0  0  0
   18.2459  101.8891   46.4900 H   0  0  0  0  0  0  0  0  0  0  0  0
   16.8150   96.9353   54.9282 H   0  0  0  0  0  0  0  0  0  0  0  0
   14.1029   95.3425   57.4138 H   0  0  0  0  0  0  0  0  0  0  0  0
   14.7878   95.0620   55.7771 H   0  0  0  0  0  0  0  0  0  0  0  0
   18.0438  102.9927   51.5447 H   0  0  0  0  0  0  0  0  0  0  0  0
   16.5795  103.9026   51.0401 H   0  0  0  0  0  0  0  0  0  0  0  0
   17.4886  100.3733   48.6966 H   0  0  0  0  0  0  0  0  0  0  0  0
   18.6216  100.7126   50.0486 H   0  0  0  0  0  0  0  0  0  0  0  0
   15.1471  101.9941   51.6019 H   0  0  0  0  0  0  0  0  0  0  0  0
   16.1692  102.4118   53.0188 H   0  0  0  0  0  0  0  0  0  0  0  0
   17.0365   98.9478   50.7344 H   0  0  0  0  0  0  0  0  0  0  0  0
   15.6411   99.9879   50.2900 H   0  0  0  0  0  0  0  0  0  0  0  0
   19.7957  105.0645   45.2723 H   0  0  0  0  0  0  0  0  0  0  0  0
   20.0916  103.7198   46.4260 H   0  0  0  0  0  0  0  0  0  0  0  0
   16.4271  104.0572   48.0971 H   0  0  0  0  0  0  0  0  0  0  0  0
   16.1441  102.3353   49.2393 H   0  0  0  0  0  0  0  0  0  0  0  0
  1 34  1  0  0  0  0
  1 35  1  0  0  0  0
  1 36  1  0  0  0  0
  2 37  1  0  0  0  0
  2 38  1  0  0  0  0
  2 39  1  0  0  0  0
  8  3  3  0  0  0  0
  9 40  1  0  0  0  0
 10  9  2  0  0  0  0
 10 41  1  0  0  0  0
 11  9  1  0  0  0  0
 11 42  1  0  0  0  0
 12 10  1  0  0  0  0
 12 43  1  0  0  0  0
 13 11  2  0  0  0  0
 13 44  1  0  0  0  0
 14 29  1  0  0  0  0
 14 45  1  0  0  0  0
 15  1  1  0  0  0  0
 15 46  1  0  0  0  0
 15 47  1  0  0  0  0
 16 31  1  0  0  0  0
 16 48  1  0  0  0  0
 16 49  1  0  0  0  0
 17 31  1  0  0  0  0
 17 50  1  0  0  0  0
 17 51  1  0  0  0  0
 18 16  1  0  0  0  0
 18 52  1  0  0  0  0
 18 53  1  0  0  0  0
 19 17  1  0  0  0  0
 19 54  1  0  0  0  0
 19 55  1  0  0  0  0
 20 27  1  0  0  0  0
 20 56  1  0  0  0  0
 20 57  1  0  0  0  0
 21 26  1  0  0  0  0
 22 33  1  0  0  0  0
 22 58  1  0  0  0  0
 23 15  1  0  0  0  0
 24  4  2  0  0  0  0
 24 22  1  0  0  0  0
 25  5  2  0  0  0  0
 25 23  1  0  0  0  0
 26  2  1  0  0  0  0
 26 29  2  0  0  0  0
 27 12  2  0  0  0  0
 27 13  1  0  0  0  0
 28  8  1  0  0  0  0
 28 14  2  0  0  0  0
 29 25  1  0  0  0  0
 30 21  2  0  0  0  0
 30 28  1  0  0  0  0
 30 32  1  0  0  0  0
 31 24  1  0  0  0  0
 31 59  1  0  0  0  0
 32 18  1  0  0  0  0
 32 19  1  0  0  0  0
 33  6  2  0  0  0  0
 33  7  2  0  0  0  0
 33 20  1  0  0  0  0
M  END
