4nw6_ligand
 OpenBabel08222323353D

 51 55  0  0  0  0  0  0  0  0999 V2000
  -24.3960   -0.6270  -24.5350 C   0  0  0  0  0  0  0  0  0  0  0  0
  -23.8940    0.6630  -24.1800 O   0  0  0  0  0  0  0  0  0  0  0  0
  -22.5590    0.7780  -23.8880 C   0  0  0  0  0  0  0  0  0  0  0  0
  -21.6540   -0.2620  -23.9590 C   0  0  0  0  0  0  0  0  0  0  0  0
  -22.1370    2.0520  -23.4920 C   0  0  0  0  0  0  0  0  0  0  0  0
  -23.0450    3.0980  -23.4630 O   0  0  0  0  0  0  0  0  0  0  0  0
  -23.0340    3.9560  -24.6090 C   0  0  0  0  0  0  0  0  0  0  0  0
  -20.7990    2.2600  -23.1390 C   0  0  0  0  0  0  0  0  0  0  0  0
  -20.4850    3.5280  -22.7320 O   0  0  0  0  0  0  0  0  0  0  0  0
  -19.1580    3.7720  -22.2450 C   0  0  0  0  0  0  0  0  0  0  0  0
  -19.8910    1.2150  -23.2150 C   0  0  0  0  0  0  0  0  0  0  0  0
  -20.3180   -0.0450  -23.6320 C   0  0  0  0  0  0  0  0  0  0  0  0
  -19.4710   -1.1740  -23.7200 N   0  0  0  0  0  0  0  0  0  0  0  0
  -18.1180   -1.2690  -23.6630 C   0  0  0  0  0  0  0  0  0  0  0  0
  -17.4180   -0.1100  -23.5160 O   0  0  0  0  0  0  0  0  0  0  0  0
  -17.4010   -2.4240  -23.6770 N   0  0  0  0  0  0  0  0  0  0  0  0
  -16.1010   -1.9350  -23.5090 C   0  0  0  0  0  0  0  0  0  0  0  0
  -14.8820   -2.6140  -23.4270 C   0  0  0  0  0  0  0  0  0  0  0  0
  -13.7120   -1.8750  -23.2440 C   0  0  0  0  0  0  0  0  0  0  0  0
  -13.7470   -0.4890  -23.1350 C   0  0  0  0  0  0  0  0  0  0  0  0
  -14.9580    0.2040  -23.2100 C   0  0  0  0  0  0  0  0  0  0  0  0
  -16.1160   -0.5440  -23.4070 C   0  0  0  0  0  0  0  0  0  0  0  0
  -15.0280    1.6910  -23.0200 C   0  0  0  0  0  0  0  0  0  0  0  0
  -14.3270    2.3480  -21.9220 C   0  0  0  0  0  0  0  0  0  0  0  0
  -13.5690    1.8820  -20.8590 N   0  0  0  0  0  0  0  0  0  0  0  0
  -13.2650    2.9770  -20.1890 C   0  0  0  0  0  0  0  0  0  0  0  0
  -13.7630    4.1140  -20.7330 N   0  0  0  0  0  0  0  0  0  0  0  0
  -14.4610    3.7400  -21.8570 C   0  0  0  0  0  0  0  0  0  0  0  0
  -15.2100    4.4950  -22.7620 C   0  0  0  0  0  0  0  0  0  0  0  0
  -15.8800    3.8340  -23.7820 C   0  0  0  0  0  0  0  0  0  0  0  0
  -15.7960    2.4510  -23.9100 C   0  0  0  0  0  0  0  0  0  0  0  0
  -25.4747   -0.5573  -24.7389 H   0  0  0  0  0  0  0  0  0  0  0  0
  -24.2244   -1.3284  -23.7052 H   0  0  0  0  0  0  0  0  0  0  0  0
  -23.8755   -0.9883  -25.4342 H   0  0  0  0  0  0  0  0  0  0  0  0
  -21.9833   -1.2471  -24.2692 H   0  0  0  0  0  0  0  0  0  0  0  0
  -23.7881    4.7467  -24.4823 H   0  0  0  0  0  0  0  0  0  0  0  0
  -23.2667    3.3684  -25.5093 H   0  0  0  0  0  0  0  0  0  0  0  0
  -22.0388    4.4122  -24.7160 H   0  0  0  0  0  0  0  0  0  0  0  0
  -19.0612    4.8297  -21.9588 H   0  0  0  0  0  0  0  0  0  0  0  0
  -18.4288    3.5376  -23.0345 H   0  0  0  0  0  0  0  0  0  0  0  0
  -18.9664    3.1359  -21.3683 H   0  0  0  0  0  0  0  0  0  0  0  0
  -18.8522    1.3771  -22.9510 H   0  0  0  0  0  0  0  0  0  0  0  0
  -19.9608   -2.0710  -23.8483 H   0  0  0  0  0  0  0  0  0  0  0  0
  -14.8459   -3.6947  -23.5041 H   0  0  0  0  0  0  0  0  0  0  0  0
  -12.7600   -2.3902  -23.1859 H   0  0  0  0  0  0  0  0  0  0  0  0
  -12.8238    0.0603  -22.9901 H   0  0  0  0  0  0  0  0  0  0  0  0
  -13.3053    0.9100  -20.6432 H   0  0  0  0  0  0  0  0  0  0  0  0
  -12.6667    2.9681  -19.2791 H   0  0  0  0  0  0  0  0  0  0  0  0
  -15.2669    5.5736  -22.6699 H   0  0  0  0  0  0  0  0  0  0  0  0
  -16.4758    4.4019  -24.4874 H   0  0  0  0  0  0  0  0  0  0  0  0
  -16.3330    1.9550  -24.7104 H   0  0  0  0  0  0  0  0  0  0  0  0
  1  2  1  0  0  0  0
  1 32  1  0  0  0  0
  1 33  1  0  0  0  0
  1 34  1  0  0  0  0
  2  3  1  0  0  0  0
  3  4  2  0  0  0  0
  3  5  1  0  0  0  0
  4 12  1  0  0  0  0
  4 35  1  0  0  0  0
  5  6  1  0  0  0  0
  5  8  2  0  0  0  0
  6  7  1  0  0  0  0
  7 36  1  0  0  0  0
  7 37  1  0  0  0  0
  7 38  1  0  0  0  0
  8  9  1  0  0  0  0
  8 11  1  0  0  0  0
  9 10  1  0  0  0  0
 10 39  1  0  0  0  0
 10 40  1  0  0  0  0
 10 41  1  0  0  0  0
 11 12  2  0  0  0  0
 11 42  1  0  0  0  0
 12 13  1  0  0  0  0
 13 14  1  0  0  0  0
 13 43  1  0  0  0  0
 14 15  1  0  0  0  0
 14 16  2  0  0  0  0
 15 22  1  0  0  0  0
 16 17  1  0  0  0  0
 17 18  2  0  0  0  0
 17 22  1  0  0  0  0
 18 19  1  0  0  0  0
 18 44  1  0  0  0  0
 19 20  2  0  0  0  0
 19 45  1  0  0  0  0
 20 21  1  0  0  0  0
 20 46  1  0  0  0  0
 21 22  2  0  0  0  0
 21 23  1  0  0  0  0
 23 24  2  0  0  0  0
 23 31  1  0  0  0  0
 24 25  1  0  0  0  0
 24 28  1  0  0  0  0
 25 26  1  0  0  0  0
 25 47  1  0  0  0  0
 26 27  2  0  0  0  0
 26 48  1  0  0  0  0
 27 28  1  0  0  0  0
 28 29  2  0  0  0  0
 29 30  1  0  0  0  0
 29 49  1  0  0  0  0
 30 31  2  0  0  0  0
 30 50  1  0  0  0  0
 31 51  1  0  0  0  0
M  END
