4nw7_ligand
 OpenBabel08222323353D

 43 46  0  0  0  0  0  0  0  0999 V2000
   -9.3810   34.4590    3.9080 O   0  5  0  0  0  0  0  0  0  0  0  0
  -10.5850   34.6590    3.8460 C   0  0  0  0  0  0  0  0  0  0  0  0
  -11.3230   33.9600    2.9620 O   0  0  0  0  0  0  0  0  0  0  0  0
  -11.1720   35.7220    4.7460 C   0  0  0  0  0  0  0  0  0  0  0  0
  -12.6640   35.4800    4.9350 C   0  0  0  0  0  0  0  0  0  0  0  0
  -13.1260   34.6530    5.9670 C   0  0  0  0  0  0  0  0  0  0  0  0
  -14.5090   34.5080    6.1870 C   0  0  0  0  0  0  0  0  0  0  0  0
  -13.5860   36.1870    4.1490 C   0  0  0  0  0  0  0  0  0  0  0  0
  -14.9580   36.0410    4.3600 C   0  0  0  0  0  0  0  0  0  0  0  0
  -15.4300   35.2100    5.3760 C   0  0  0  0  0  0  0  0  0  0  0  0
  -16.7810   34.9950    5.5140 N   0  0  0  0  0  0  0  0  0  0  0  0
  -17.2400   33.8120    5.9680 C   0  0  0  0  0  0  0  0  0  0  0  0
  -18.5700   33.5840    5.9820 N   0  0  0  0  0  0  0  0  0  0  0  0
  -19.0660   32.3980    6.4560 C   0  0  0  0  0  0  0  0  0  0  0  0
  -20.5250   32.2060    6.5120 C   0  0  0  0  0  0  0  0  0  0  0  0
  -21.2090   33.4720    6.9910 C   0  0  0  0  0  0  0  0  0  0  0  0
  -21.4150   32.9960    5.5540 C   0  0  0  0  0  0  0  0  0  0  0  0
  -18.2220   31.4210    6.8680 N   0  0  0  0  0  0  0  0  0  0  0  0
  -16.3860   32.8350    6.3740 N   0  0  0  0  0  0  0  0  0  0  0  0
  -16.8700   31.6420    6.8260 C   0  0  0  0  0  0  0  0  0  0  0  0
  -16.0060   30.6780    7.2620 C   0  0  0  0  0  0  0  0  0  0  0  0
  -16.4990   29.4730    7.7430 C   0  0  0  0  0  0  0  0  0  0  0  0
  -14.6430   30.9080    7.2270 C   0  0  0  0  0  0  0  0  0  0  0  0
  -13.7590   29.9290    7.6530 C   0  0  0  0  0  0  0  0  0  0  0  0
  -11.9790   30.2200    7.5490 Cl  0  0  0  0  0  0  0  0  0  0  0  0
  -14.2470   28.7190    8.1390 C   0  0  0  0  0  0  0  0  0  0  0  0
  -15.6150   28.4930    8.1870 C   0  0  0  0  0  0  0  0  0  0  0  0
  -11.0185   36.7110    4.2896 H   0  0  0  0  0  0  0  0  0  0  0  0
  -10.6708   35.6880    5.7246 H   0  0  0  0  0  0  0  0  0  0  0  0
  -12.4187   34.1248    6.5961 H   0  0  0  0  0  0  0  0  0  0  0  0
  -14.8674   33.8586    6.9776 H   0  0  0  0  0  0  0  0  0  0  0  0
  -13.2299   36.8525    3.3710 H   0  0  0  0  0  0  0  0  0  0  0  0
  -15.6603   36.5761    3.7311 H   0  0  0  0  0  0  0  0  0  0  0  0
  -17.4461   35.7424    5.2690 H   0  0  0  0  0  0  0  0  0  0  0  0
  -20.8046   31.1951    6.8435 H   0  0  0  0  0  0  0  0  0  0  0  0
  -20.6146   34.3758    7.1904 H   0  0  0  0  0  0  0  0  0  0  0  0
  -22.0356   33.4099    7.7140 H   0  0  0  0  0  0  0  0  0  0  0  0
  -22.3880   32.5883    5.2424 H   0  0  0  0  0  0  0  0  0  0  0  0
  -20.9669   33.5542    4.7188 H   0  0  0  0  0  0  0  0  0  0  0  0
  -17.5680   29.2955    7.7729 H   0  0  0  0  0  0  0  0  0  0  0  0
  -14.2645   31.8571    6.8652 H   0  0  0  0  0  0  0  0  0  0  0  0
  -13.5586   27.9541    8.4796 H   0  0  0  0  0  0  0  0  0  0  0  0
  -15.9958   27.5532    8.5703 H   0  0  0  0  0  0  0  0  0  0  0  0
  1  2  1  0  0  0  0
  2  3  2  0  0  0  0
  2  4  1  0  0  0  0
  4  5  1  0  0  0  0
  4 28  1  0  0  0  0
  4 29  1  0  0  0  0
  5  6  2  0  0  0  0
  5  8  1  0  0  0  0
  6  7  1  0  0  0  0
  6 30  1  0  0  0  0
  7 10  2  0  0  0  0
  7 31  1  0  0  0  0
  8  9  2  0  0  0  0
  8 32  1  0  0  0  0
  9 10  1  0  0  0  0
  9 33  1  0  0  0  0
 10 11  1  0  0  0  0
 11 12  1  0  0  0  0
 11 34  1  0  0  0  0
 12 13  2  0  0  0  0
 12 19  1  0  0  0  0
 13 14  1  0  0  0  0
 14 15  1  0  0  0  0
 14 18  2  0  0  0  0
 15 16  1  0  0  0  0
 15 17  1  0  0  0  0
 15 35  1  0  0  0  0
 16 17  1  0  0  0  0
 16 36  1  0  0  0  0
 16 37  1  0  0  0  0
 17 38  1  0  0  0  0
 17 39  1  0  0  0  0
 18 20  1  0  0  0  0
 19 20  2  0  0  0  0
 20 21  1  0  0  0  0
 21 22  2  0  0  0  0
 21 23  1  0  0  0  0
 22 27  1  0  0  0  0
 22 40  1  0  0  0  0
 23 24  2  0  0  0  0
 23 41  1  0  0  0  0
 24 25  1  0  0  0  0
 24 26  1  0  0  0  0
 26 27  2  0  0  0  0
 26 42  1  0  0  0  0
 27 43  1  0  0  0  0
M  CHG  1   1  -1
M  END
