4nxs_ligand
 OpenBabel08222323353D

 38 39  0  0  1  0  0  0  0  0999 V2000
   27.3400  -20.5800    2.6970 C   0  0  0  0  0  0  0  0  0  0  0  0
   25.2980  -21.4330    1.6010 C   0  0  0  0  0  0  0  0  0  0  0  0
   26.4580  -21.6030    2.5210 C   0  0  0  0  0  0  0  0  0  0  0  0
   24.4360  -22.4290    1.4270 F   0  0  0  0  0  0  0  0  0  0  0  0
   25.1240  -20.2530    0.9370 C   0  0  0  0  0  0  0  0  0  0  0  0
   26.0920  -19.1360    1.1320 C   0  0  0  0  0  0  0  0  0  0  0  0
   27.1490  -19.2860    1.9780 C   0  0  0  0  0  0  0  0  0  0  0  0
   28.1050  -18.2350    2.1770 N   0  0  0  0  0  0  0  0  0  0  0  0
   27.9680  -17.1830    3.1420 C   0  0  0  0  0  0  0  0  0  0  0  0
   26.6400  -17.0930    4.1390 S   0  0  0  0  0  0  0  0  0  0  0  0
   29.0310  -16.2250    3.2130 N   0  0  0  0  0  0  0  0  0  0  0  0
   30.1200  -16.4310    2.3140 C   0  0  0  0  0  0  0  0  0  0  0  0
   31.2990  -15.5110    2.4070 C   0  0  2  0  0  0  0  0  0  0  0  0
   32.4120  -16.2520    2.7320 O   0  0  0  0  0  0  0  0  0  0  0  0
   31.1820  -14.3480    3.3460 C   0  0  1  0  0  0  0  0  0  0  0  0
   30.8030  -13.2180    2.6600 O   0  0  0  0  0  0  0  0  0  0  0  0
   30.2970  -14.5420    4.5270 C   0  0  1  0  0  0  0  0  0  0  0  0
   30.0690  -13.3140    5.1040 O   0  0  0  0  0  0  0  0  0  0  0  0
   29.0040  -15.1530    4.1450 C   0  0  1  0  0  0  0  0  0  0  0  0
   28.0360  -14.0850    3.7860 C   0  0  0  0  0  0  0  0  0  0  0  0
   28.1000  -12.8700    4.4330 O   0  0  0  0  0  0  0  0  0  0  0  0
   28.1857  -20.7064    3.3632 H   0  0  0  0  0  0  0  0  0  0  0  0
   26.5996  -22.5390    3.0491 H   0  0  0  0  0  0  0  0  0  0  0  0
   24.2810  -20.1280    0.2671 H   0  0  0  0  0  0  0  0  0  0  0  0
   25.9543  -18.2021    0.5992 H   0  0  0  0  0  0  0  0  0  0  0  0
   28.9238  -18.2360    1.6029 H   0  0  0  0  0  0  0  0  0  0  0  0
   29.7202  -16.3465    1.2927 H   0  0  0  0  0  0  0  0  0  0  0  0
   30.4904  -17.4535    2.4793 H   0  0  0  0  0  0  0  0  0  0  0  0
   31.4493  -15.0883    1.4027 H   0  0  0  0  0  0  0  0  0  0  0  0
   33.1663  -15.6779    2.7936 H   0  0  0  0  0  0  0  0  0  0  0  0
   32.1924  -14.1707    3.7430 H   0  0  0  0  0  0  0  0  0  0  0  0
   30.7327  -12.4897    3.2659 H   0  0  0  0  0  0  0  0  0  0  0  0
   30.8015  -15.1999    5.2500 H   0  0  0  0  0  0  0  0  0  0  0  0
   29.6490  -12.7418    4.4726 H   0  0  0  0  0  0  0  0  0  0  0  0
   28.6200  -15.6077    5.0701 H   0  0  0  0  0  0  0  0  0  0  0  0
   27.0295  -14.4910    3.9652 H   0  0  0  0  0  0  0  0  0  0  0  0
   28.1644  -13.8836    2.7123 H   0  0  0  0  0  0  0  0  0  0  0  0
   28.9516  -12.4768    4.2824 H   0  0  0  0  0  0  0  0  0  0  0  0
  1  3  2  0  0  0  0
  1  7  1  0  0  0  0
  1 22  1  0  0  0  0
  2  4  1  0  0  0  0
  2  5  2  0  0  0  0
  3  2  1  0  0  0  0
  3 23  1  0  0  0  0
  5  6  1  0  0  0  0
  5 24  1  0  0  0  0
  6  7  2  0  0  0  0
  6 25  1  0  0  0  0
  7  8  1  0  0  0  0
  8  9  1  0  0  0  0
  8 26  1  0  0  0  0
  9 10  2  0  0  0  0
  9 11  1  0  0  0  0
 11 12  1  0  0  0  0
 11 19  1  0  0  0  0
 12 13  1  0  0  0  0
 12 27  1  0  0  0  0
 12 28  1  0  0  0  0
 13 14  1  0  0  0  0
 13 15  1  0  0  0  0
 13 29  1  6  0  0  0
 14 30  1  0  0  0  0
 15 16  1  0  0  0  0
 15 17  1  0  0  0  0
 15 31  1  1  0  0  0
 16 32  1  0  0  0  0
 17 18  1  0  0  0  0
 17 19  1  0  0  0  0
 17 33  1  1  0  0  0
 18 34  1  0  0  0  0
 19 20  1  0  0  0  0
 19 35  1  1  0  0  0
 20 21  1  0  0  0  0
 20 36  1  0  0  0  0
 20 37  1  0  0  0  0
 21 38  1  0  0  0  0
M  END
