4nyi_ligand
 OpenBabel08222323353D

 65 69  0  0  1  0  0  0  0  0999 V2000
   40.8730   28.4720   19.1120 O   0  0  0  0  0  0  0  0  0  0  0  0
   40.4840   28.7820   20.2400 C   0  0  0  0  0  0  0  0  0  0  0  0
   41.3670   29.5600   21.1780 C   0  0  2  0  0  0  0  0  0  0  0  0
   41.3610   30.9930   20.7700 C   0  0  0  0  0  0  0  0  0  0  0  0
   40.2240   31.6700   21.5020 C   0  0  0  0  0  0  0  0  0  0  0  0
   40.0260   31.6760   22.8690 C   0  0  0  0  0  0  0  0  0  0  0  0
   38.9020   32.3780   23.1360 N   0  0  0  0  0  0  0  0  0  0  0  0
   38.3490   32.8330   21.9690 C   0  0  0  0  0  0  0  0  0  0  0  0
   39.1760   32.3920   20.9200 C   0  0  0  0  0  0  0  0  0  0  0  0
   38.8520   32.7170   19.6110 C   0  0  0  0  0  0  0  0  0  0  0  0
   37.6890   33.4700   19.4150 C   0  0  0  0  0  0  0  0  0  0  0  0
   36.8870   33.8940   20.4690 C   0  0  0  0  0  0  0  0  0  0  0  0
   37.1920   33.5880   21.7860 C   0  0  0  0  0  0  0  0  0  0  0  0
   42.6960   29.0250   21.1690 N   0  3  0  0  0  0  0  0  0  0  0  0
   39.1590   28.4230   20.7360 N   0  0  0  0  0  0  0  0  0  0  0  0
   38.1850   27.6720   19.9400 C   0  0  2  0  0  0  0  0  0  0  0  0
   37.6700   28.5620   18.8930 C   0  0  0  0  0  0  0  0  0  0  0  0
   37.0570   29.7860   19.4710 C   0  0  0  0  0  0  0  0  0  0  0  0
   37.1280   27.2600   20.8800 C   0  0  0  0  0  0  0  0  0  0  0  0
   36.3740   28.4100   21.4610 C   0  0  0  0  0  0  0  0  0  0  0  0
   36.0630   29.4670   20.5040 N   0  3  1  0  0  0  0  0  0  0  0  0
   35.0820   30.5240   20.7440 C   0  0  0  0  0  0  0  0  0  0  0  0
   34.0020   30.2090   21.7660 C   0  0  0  0  0  0  0  0  0  0  0  0
   32.7210   29.7980   21.4970 C   0  0  0  0  0  0  0  0  0  0  0  0
   32.0610   29.6410   22.6810 N   0  0  0  0  0  0  0  0  0  0  0  0
   32.8880   29.9600   23.7350 C   0  0  0  0  0  0  0  0  0  0  0  0
   34.1140   30.3260   23.1630 C   0  0  0  0  0  0  0  0  0  0  0  0
   35.1610   30.7020   24.0150 C   0  0  0  0  0  0  0  0  0  0  0  0
   34.9590   30.7020   25.4040 C   0  0  0  0  0  0  0  0  0  0  0  0
   36.0830   31.1100   26.2590 C   0  0  0  0  0  0  0  0  0  0  0  0
   33.7170   30.3240   25.9420 C   0  0  0  0  0  0  0  0  0  0  0  0
   32.6540   29.9480   25.1290 C   0  0  0  0  0  0  0  0  0  0  0  0
   40.9643   29.4796   22.1985 H   0  0  0  0  0  0  0  0  0  0  0  0
   41.2087   31.0734   19.6836 H   0  0  0  0  0  0  0  0  0  0  0  0
   42.3166   31.4649   21.0423 H   0  0  0  0  0  0  0  0  0  0  0  0
   40.6671   31.1962   23.6070 H   0  0  0  0  0  0  0  0  0  0  0  0
   38.5187   32.5456   24.0772 H   0  0  0  0  0  0  0  0  0  0  0  0
   39.4710   32.4023   18.7786 H   0  0  0  0  0  0  0  0  0  0  0  0
   37.4023   33.7328   18.4032 H   0  0  0  0  0  0  0  0  0  0  0  0
   36.0000   34.4792   20.2550 H   0  0  0  0  0  0  0  0  0  0  0  0
   36.5741   33.9130   22.6152 H   0  0  0  0  0  0  0  0  0  0  0  0
   42.6703   28.0568   21.4482 H   0  0  0  0  0  0  0  0  0  0  0  0
   43.2719   29.5450   21.8124 H   0  0  0  0  0  0  0  0  0  0  0  0
   43.0808   29.0967   20.2401 H   0  0  0  0  0  0  0  0  0  0  0  0
   38.9044   28.7025   21.6618 H   0  0  0  0  0  0  0  0  0  0  0  0
   38.6502   26.7874   19.4805 H   0  0  0  0  0  0  0  0  0  0  0  0
   36.9096   28.0235   18.3084 H   0  0  0  0  0  0  0  0  0  0  0  0
   38.4999   28.8554   18.2333 H   0  0  0  0  0  0  0  0  0  0  0  0
   36.5641   30.3507   18.6660 H   0  0  0  0  0  0  0  0  0  0  0  0
   37.8498   30.4028   19.9193 H   0  0  0  0  0  0  0  0  0  0  0  0
   37.5923   26.6958   21.7022 H   0  0  0  0  0  0  0  0  0  0  0  0
   36.4184   26.6116   20.3452 H   0  0  0  0  0  0  0  0  0  0  0  0
   36.9784   28.8449   22.2707 H   0  0  0  0  0  0  0  0  0  0  0  0
   35.4281   28.0291   21.8735 H   0  0  0  0  0  0  0  0  0  0  0  0
   35.4637   28.8964   19.9284 H   0  0  0  0  0  0  0  0  0  0  0  0
   34.5861   30.7468   19.7877 H   0  0  0  0  0  0  0  0  0  0  0  0
   35.6252   31.4151   21.0918 H   0  0  0  0  0  0  0  0  0  0  0  0
   32.3020   29.6262   20.5066 H   0  0  0  0  0  0  0  0  0  0  0  0
   31.0839   29.3285   22.7732 H   0  0  0  0  0  0  0  0  0  0  0  0
   36.1214   30.9912   23.6038 H   0  0  0  0  0  0  0  0  0  0  0  0
   35.7776   31.0603   27.3146 H   0  0  0  0  0  0  0  0  0  0  0  0
   36.3775   32.1403   26.0106 H   0  0  0  0  0  0  0  0  0  0  0  0
   36.9350   30.4346   26.0917 H   0  0  0  0  0  0  0  0  0  0  0  0
   33.5846   30.3257   27.0179 H   0  0  0  0  0  0  0  0  0  0  0  0
   31.6944   29.6602   25.5430 H   0  0  0  0  0  0  0  0  0  0  0  0
  1  2  2  0  0  0  0
  2  3  1  0  0  0  0
  2 15  1  0  0  0  0
  3  4  1  0  0  0  0
  3 14  1  0  0  0  0
  3 33  1  1  0  0  0
  4  5  1  0  0  0  0
  4 34  1  0  0  0  0
  4 35  1  0  0  0  0
  5  6  2  0  0  0  0
  5  9  1  0  0  0  0
  6  7  1  0  0  0  0
  6 36  1  0  0  0  0
  7  8  1  0  0  0  0
  7 37  1  0  0  0  0
  8  9  2  0  0  0  0
  8 13  1  0  0  0  0
  9 10  1  0  0  0  0
 10 11  2  0  0  0  0
 10 38  1  0  0  0  0
 11 12  1  0  0  0  0
 11 39  1  0  0  0  0
 12 13  2  0  0  0  0
 12 40  1  0  0  0  0
 13 41  1  0  0  0  0
 14 42  1  0  0  0  0
 14 43  1  0  0  0  0
 14 44  1  0  0  0  0
 15 16  1  0  0  0  0
 15 45  1  0  0  0  0
 16 17  1  0  0  0  0
 16 19  1  0  0  0  0
 16 46  1  6  0  0  0
 17 18  1  0  0  0  0
 17 47  1  0  0  0  0
 17 48  1  0  0  0  0
 18 21  1  0  0  0  0
 18 49  1  0  0  0  0
 18 50  1  0  0  0  0
 19 20  1  0  0  0  0
 19 51  1  0  0  0  0
 19 52  1  0  0  0  0
 20 21  1  0  0  0  0
 20 53  1  0  0  0  0
 20 54  1  0  0  0  0
 21 22  1  0  0  0  0
 21 55  1  6  0  0  0
 22 23  1  0  0  0  0
 22 56  1  0  0  0  0
 22 57  1  0  0  0  0
 23 24  2  0  0  0  0
 23 27  1  0  0  0  0
 24 25  1  0  0  0  0
 24 58  1  0  0  0  0
 25 26  1  0  0  0  0
 25 59  1  0  0  0  0
 26 27  2  0  0  0  0
 26 32  1  0  0  0  0
 27 28  1  0  0  0  0
 28 29  2  0  0  0  0
 28 60  1  0  0  0  0
 29 30  1  0  0  0  0
 29 31  1  0  0  0  0
 30 61  1  0  0  0  0
 30 62  1  0  0  0  0
 30 63  1  0  0  0  0
 31 32  2  0  0  0  0
 31 64  1  0  0  0  0
 32 65  1  0  0  0  0
M  CHG  2  14   1  21   1
M  END
