4o0j_ligand
 OpenBabel08222323353D

 61 63  0  0  1  0  0  0  0  0999 V2000
   48.2310  -15.4000   28.0770 N   0  0  0  0  0  0  0  0  0  0  0  0
   47.3890  -16.4580   28.1640 C   0  0  0  0  0  0  0  0  0  0  0  0
   46.0040  -16.2920   28.4130 C   0  0  0  0  0  0  0  0  0  0  0  0
   45.5480  -14.9720   28.5380 C   0  0  0  0  0  0  0  0  0  0  0  0
   46.4480  -13.8870   28.4120 C   0  0  0  0  0  0  0  0  0  0  0  0
   47.8240  -14.1320   28.1660 C   0  0  0  0  0  0  0  0  0  0  0  0
   44.1230  -14.7390   28.7480 C   0  0  0  0  0  0  0  0  0  0  0  0
   43.7010  -14.4000   30.0360 C   0  0  0  0  0  0  0  0  0  0  0  0
   42.3620  -14.1600   30.2710 C   0  0  0  0  0  0  0  0  0  0  0  0
   41.4860  -14.2760   29.1910 C   0  0  0  0  0  0  0  0  0  0  0  0
   41.8820  -14.5640   27.8960 C   0  0  0  0  0  0  0  0  0  0  0  0
   43.2420  -14.8440   27.6680 C   0  0  0  0  0  0  0  0  0  0  0  0
   39.7920  -13.9330   29.5820 Cl  0  0  0  0  0  0  0  0  0  0  0  0
   45.0380  -17.4760   28.5180 C   0  0  0  0  0  0  0  0  0  0  0  0
   48.9770  -13.1310   28.0780 C   0  0  0  0  0  0  0  0  0  0  0  0
   48.0620  -17.7990   28.0120 C   0  0  0  0  0  0  0  0  0  0  0  0
   48.1770  -18.4730   26.8020 C   0  0  0  0  0  0  0  0  0  0  0  0
   48.8370  -19.7290   26.7750 C   0  0  0  0  0  0  0  0  0  0  0  0
   49.3990  -20.2720   27.9450 C   0  0  0  0  0  0  0  0  0  0  0  0
   49.3080  -19.5650   29.1500 C   0  0  0  0  0  0  0  0  0  0  0  0
   48.6400  -18.3330   29.1490 C   0  0  0  0  0  0  0  0  0  0  0  0
   50.1060  -21.6160   27.9080 C   0  0  0  0  0  0  0  0  0  0  0  0
   49.8930  -20.0890   30.4570 C   0  0  0  0  0  0  0  0  0  0  0  0
   45.9110  -12.5080   28.6170 C   0  0  1  0  0  0  0  0  0  0  0  0
   46.4080  -12.0920   29.9890 C   0  0  0  0  0  0  0  0  0  0  0  0
   46.4160  -11.5840   27.6770 O   0  0  0  0  0  0  0  0  0  0  0  0
   45.8060  -11.4180   26.3880 C   0  0  0  0  0  0  0  0  0  0  0  0
   46.0160  -12.6140   25.5070 C   0  0  0  0  0  0  0  0  0  0  0  0
   46.5280  -10.2230   25.7180 C   0  0  0  0  0  0  0  0  0  0  0  0
   44.3240  -11.1740   26.6170 C   0  0  0  0  0  0  0  0  0  0  0  0
   46.6550  -10.8980   30.1860 O   0  5  0  0  0  0  0  0  0  0  0  0
   46.5860  -12.9290   30.9030 O   0  0  0  0  0  0  0  0  0  0  0  0
   44.4193  -14.3260   30.8444 H   0  0  0  0  0  0  0  0  0  0  0  0
   42.0042  -13.8913   31.2583 H   0  0  0  0  0  0  0  0  0  0  0  0
   41.1659  -14.5735   27.0822 H   0  0  0  0  0  0  0  0  0  0  0  0
   43.5957  -15.1324   26.6847 H   0  0  0  0  0  0  0  0  0  0  0  0
   45.5952  -18.4161   28.3923 H   0  0  0  0  0  0  0  0  0  0  0  0
   44.2726  -17.3956   27.7321 H   0  0  0  0  0  0  0  0  0  0  0  0
   44.5525  -17.4668   29.5050 H   0  0  0  0  0  0  0  0  0  0  0  0
   48.5810  -12.1078   28.1571 H   0  0  0  0  0  0  0  0  0  0  0  0
   49.4938  -13.2507   27.1144 H   0  0  0  0  0  0  0  0  0  0  0  0
   49.6854  -13.3145   28.8993 H   0  0  0  0  0  0  0  0  0  0  0  0
   47.7689  -18.0459   25.8931 H   0  0  0  0  0  0  0  0  0  0  0  0
   48.9090  -20.2764   25.8421 H   0  0  0  0  0  0  0  0  0  0  0  0
   48.5738  -17.7763   30.0768 H   0  0  0  0  0  0  0  0  0  0  0  0
   50.0772  -22.0174   26.8842 H   0  0  0  0  0  0  0  0  0  0  0  0
   49.6004  -22.3152   28.5903 H   0  0  0  0  0  0  0  0  0  0  0  0
   51.1523  -21.4887   28.2226 H   0  0  0  0  0  0  0  0  0  0  0  0
   50.3781  -21.0599   30.2783 H   0  0  0  0  0  0  0  0  0  0  0  0
   49.0876  -20.2121   31.1960 H   0  0  0  0  0  0  0  0  0  0  0  0
   50.6354  -19.3731   30.8395 H   0  0  0  0  0  0  0  0  0  0  0  0
   44.8118  -12.5167   28.5761 H   0  0  0  0  0  0  0  0  0  0  0  0
   45.5330  -12.4418   24.5338 H   0  0  0  0  0  0  0  0  0  0  0  0
   45.5750  -13.5021   25.9831 H   0  0  0  0  0  0  0  0  0  0  0  0
   47.0939  -12.7749   25.3580 H   0  0  0  0  0  0  0  0  0  0  0  0
   46.0992  -10.0482   24.7202 H   0  0  0  0  0  0  0  0  0  0  0  0
   47.6001  -10.4495   25.6218 H   0  0  0  0  0  0  0  0  0  0  0  0
   46.3975   -9.3224   26.3360 H   0  0  0  0  0  0  0  0  0  0  0  0
   43.8203  -11.0414   25.6482 H   0  0  0  0  0  0  0  0  0  0  0  0
   44.1914  -10.2677   27.2262 H   0  0  0  0  0  0  0  0  0  0  0  0
   43.8873  -12.0361   27.1424 H   0  0  0  0  0  0  0  0  0  0  0  0
  1  2  2  0  0  0  0
  1  6  1  0  0  0  0
  2  3  1  0  0  0  0
  2 16  1  0  0  0  0
  3  4  2  0  0  0  0
  3 14  1  0  0  0  0
  4  5  1  0  0  0  0
  4  7  1  0  0  0  0
  5  6  2  0  0  0  0
  5 24  1  0  0  0  0
  6 15  1  0  0  0  0
  7  8  2  0  0  0  0
  7 12  1  0  0  0  0
  8  9  1  0  0  0  0
  8 33  1  0  0  0  0
  9 10  2  0  0  0  0
  9 34  1  0  0  0  0
 10 11  1  0  0  0  0
 10 13  1  0  0  0  0
 11 12  2  0  0  0  0
 11 35  1  0  0  0  0
 12 36  1  0  0  0  0
 14 37  1  0  0  0  0
 14 38  1  0  0  0  0
 14 39  1  0  0  0  0
 15 40  1  0  0  0  0
 15 41  1  0  0  0  0
 15 42  1  0  0  0  0
 16 17  2  0  0  0  0
 16 21  1  0  0  0  0
 17 18  1  0  0  0  0
 17 43  1  0  0  0  0
 18 19  2  0  0  0  0
 18 44  1  0  0  0  0
 19 20  1  0  0  0  0
 19 22  1  0  0  0  0
 20 21  2  0  0  0  0
 20 23  1  0  0  0  0
 21 45  1  0  0  0  0
 22 46  1  0  0  0  0
 22 47  1  0  0  0  0
 22 48  1  0  0  0  0
 23 49  1  0  0  0  0
 23 50  1  0  0  0  0
 23 51  1  0  0  0  0
 24 25  1  0  0  0  0
 24 26  1  0  0  0  0
 24 52  1  6  0  0  0
 25 31  1  0  0  0  0
 25 32  2  0  0  0  0
 26 27  1  0  0  0  0
 27 28  1  0  0  0  0
 27 29  1  0  0  0  0
 27 30  1  0  0  0  0
 28 53  1  0  0  0  0
 28 54  1  0  0  0  0
 28 55  1  0  0  0  0
 29 56  1  0  0  0  0
 29 57  1  0  0  0  0
 29 58  1  0  0  0  0
 30 59  1  0  0  0  0
 30 60  1  0  0  0  0
 30 61  1  0  0  0  0
M  CHG  1  31  -1
M  END
