4o0v_ligand
 OpenBabel08222323353D

 56 59  0  0  0  0  0  0  0  0999 V2000
  -40.9260   11.3530  -11.2700 C   0  0  0  0  0  0  0  0  0  0  0  0
  -40.4830   12.5880  -11.8320 O   0  0  0  0  0  0  0  0  0  0  0  0
  -39.4690   13.2490  -11.0700 C   0  0  0  0  0  0  0  0  0  0  0  0
  -38.7850   14.2990  -11.9510 C   0  0  0  0  0  0  0  0  0  0  0  0
  -38.3650   13.6690  -13.2060 N   0  0  0  0  0  0  0  0  0  0  0  0
  -37.0250   13.4410  -13.4320 C   0  0  0  0  0  0  0  0  0  0  0  0
  -36.0520   14.1340  -12.8920 N   0  0  0  0  0  0  0  0  0  0  0  0
  -34.8540   13.6590  -13.3200 C   0  0  0  0  0  0  0  0  0  0  0  0
  -33.5330   14.0330  -13.0550 C   0  0  0  0  0  0  0  0  0  0  0  0
  -32.5020   13.3580  -13.6430 C   0  0  0  0  0  0  0  0  0  0  0  0
  -32.7580   12.2920  -14.5110 C   0  0  0  0  0  0  0  0  0  0  0  0
  -34.0640   11.9070  -14.7800 C   0  0  0  0  0  0  0  0  0  0  0  0
  -35.1220   12.5840  -14.1930 C   0  0  0  0  0  0  0  0  0  0  0  0
  -36.5110   12.4640  -14.2500 N   0  0  0  0  0  0  0  0  0  0  0  0
  -37.2590   11.5320  -14.9880 C   0  0  0  0  0  0  0  0  0  0  0  0
  -36.7620   10.9610  -16.1660 C   0  0  0  0  0  0  0  0  0  0  0  0
  -37.5420   10.0450  -16.8480 C   0  0  0  0  0  0  0  0  0  0  0  0
  -38.7400    9.7340  -16.3730 N   0  0  0  0  0  0  0  0  0  0  0  0
  -39.1910   10.2860  -15.2570 C   0  0  0  0  0  0  0  0  0  0  0  0
  -38.4710   11.1670  -14.5710 N   0  0  0  0  0  0  0  0  0  0  0  0
  -40.4460    9.9260  -14.7980 N   0  0  0  0  0  0  0  0  0  0  0  0
  -31.6680   11.5920  -15.1290 C   0  0  0  0  0  0  0  0  0  0  0  0
  -30.7940   10.9980  -15.6350 C   0  0  0  0  0  0  0  0  0  0  0  0
  -29.6950   10.2520  -16.2780 C   0  0  0  0  0  0  0  0  0  0  0  0
  -30.0230    8.7580  -16.2790 C   0  0  0  0  0  0  0  0  0  0  0  0
  -28.9700    7.9690  -17.0810 C   0  0  0  0  0  0  0  0  0  0  0  0
  -28.8880    8.5060  -18.5100 C   0  0  0  0  0  0  0  0  0  0  0  0
  -28.4800    9.9760  -18.4690 C   0  0  0  0  0  0  0  0  0  0  0  0
  -29.5530   10.7680  -17.7250 C   0  0  0  0  0  0  0  0  0  0  0  0
  -28.4790   10.4990  -15.5810 O   0  0  0  0  0  0  0  0  0  0  0  0
  -41.7012   10.9138  -11.9151 H   0  0  0  0  0  0  0  0  0  0  0  0
  -41.3423   11.5344  -10.2681 H   0  0  0  0  0  0  0  0  0  0  0  0
  -40.0760   10.6590  -11.1938 H   0  0  0  0  0  0  0  0  0  0  0  0
  -38.7257   12.5132  -10.7293 H   0  0  0  0  0  0  0  0  0  0  0  0
  -39.9250   13.7404  -10.1979 H   0  0  0  0  0  0  0  0  0  0  0  0
  -37.9051   14.7023  -11.4284 H   0  0  0  0  0  0  0  0  0  0  0  0
  -39.4899   15.1156  -12.1662 H   0  0  0  0  0  0  0  0  0  0  0  0
  -39.0647   13.3993  -13.9121 H   0  0  0  0  0  0  0  0  0  0  0  0
  -33.3275   14.8584  -12.3831 H   0  0  0  0  0  0  0  0  0  0  0  0
  -31.4789   13.6502  -13.4357 H   0  0  0  0  0  0  0  0  0  0  0  0
  -34.2570   11.0765  -15.4494 H   0  0  0  0  0  0  0  0  0  0  0  0
  -35.7807   11.2328  -16.5378 H   0  0  0  0  0  0  0  0  0  0  0  0
  -37.1780    9.5866  -17.7604 H   0  0  0  0  0  0  0  0  0  0  0  0
  -41.0106    9.2437  -15.3240 H   0  0  0  0  0  0  0  0  0  0  0  0
  -40.8155   10.3404  -13.9304 H   0  0  0  0  0  0  0  0  0  0  0  0
  -31.0124    8.6059  -16.7350 H   0  0  0  0  0  0  0  0  0  0  0  0
  -30.0367    8.3907  -15.2422 H   0  0  0  0  0  0  0  0  0  0  0  0
  -29.2535    6.9065  -17.1073 H   0  0  0  0  0  0  0  0  0  0  0  0
  -27.9885    8.0747  -16.5957 H   0  0  0  0  0  0  0  0  0  0  0  0
  -29.8699    8.4098  -18.9965 H   0  0  0  0  0  0  0  0  0  0  0  0
  -28.1402    7.9320  -19.0768 H   0  0  0  0  0  0  0  0  0  0  0  0
  -28.3823   10.3606  -19.4949 H   0  0  0  0  0  0  0  0  0  0  0  0
  -27.5175   10.0774  -17.9462 H   0  0  0  0  0  0  0  0  0  0  0  0
  -29.2704   11.8309  -17.7048 H   0  0  0  0  0  0  0  0  0  0  0  0
  -30.5147   10.6541  -18.2466 H   0  0  0  0  0  0  0  0  0  0  0  0
  -28.2929   11.4306  -15.5914 H   0  0  0  0  0  0  0  0  0  0  0  0
  1  2  1  0  0  0  0
  1 31  1  0  0  0  0
  1 32  1  0  0  0  0
  1 33  1  0  0  0  0
  2  3  1  0  0  0  0
  3  4  1  0  0  0  0
  3 34  1  0  0  0  0
  3 35  1  0  0  0  0
  4  5  1  0  0  0  0
  4 36  1  0  0  0  0
  4 37  1  0  0  0  0
  5  6  1  0  0  0  0
  5 38  1  0  0  0  0
  6  7  2  0  0  0  0
  6 14  1  0  0  0  0
  7  8  1  0  0  0  0
  8  9  2  0  0  0  0
  8 13  1  0  0  0  0
  9 10  1  0  0  0  0
  9 39  1  0  0  0  0
 10 11  2  0  0  0  0
 10 40  1  0  0  0  0
 11 12  1  0  0  0  0
 11 22  1  0  0  0  0
 12 13  2  0  0  0  0
 12 41  1  0  0  0  0
 13 14  1  0  0  0  0
 14 15  1  0  0  0  0
 15 16  2  0  0  0  0
 15 20  1  0  0  0  0
 16 17  1  0  0  0  0
 16 42  1  0  0  0  0
 17 18  2  0  0  0  0
 17 43  1  0  0  0  0
 18 19  1  0  0  0  0
 19 20  2  0  0  0  0
 19 21  1  0  0  0  0
 21 44  1  0  0  0  0
 21 45  1  0  0  0  0
 22 23  3  0  0  0  0
 23 24  1  0  0  0  0
 24 25  1  0  0  0  0
 24 29  1  0  0  0  0
 24 30  1  0  0  0  0
 25 26  1  0  0  0  0
 25 46  1  0  0  0  0
 25 47  1  0  0  0  0
 26 27  1  0  0  0  0
 26 48  1  0  0  0  0
 26 49  1  0  0  0  0
 27 28  1  0  0  0  0
 27 50  1  0  0  0  0
 27 51  1  0  0  0  0
 28 29  1  0  0  0  0
 28 52  1  0  0  0  0
 28 53  1  0  0  0  0
 29 54  1  0  0  0  0
 29 55  1  0  0  0  0
 30 56  1  0  0  0  0
M  END
