4o12_ligand
 OpenBabel08222323353D

 49 50  0  0  1  0  0  0  0  0999 V2000
   16.2290    3.3570   -3.7530 C   0  0  0  0  0  0  0  0  0  0  0  0
   17.5170    3.0610   -4.1450 C   0  0  0  0  0  0  0  0  0  0  0  0
   18.4860    2.7680   -3.1970 C   0  0  0  0  0  0  0  0  0  0  0  0
   18.1590    2.7700   -1.8530 C   0  0  0  0  0  0  0  0  0  0  0  0
   16.8690    3.0650   -1.4550 C   0  0  0  0  0  0  0  0  0  0  0  0
   15.9000    3.3640   -2.3990 C   0  0  0  0  0  0  0  0  0  0  0  0
   14.0480    4.9000   -2.3890 C   0  0  0  0  0  0  0  0  0  0  0  0
   14.9200    6.0620   -1.9160 C   0  0  0  0  0  0  0  0  0  0  0  0
   14.9760    6.1170   -0.3840 C   0  0  0  0  0  0  0  0  0  0  0  0
   16.0750    7.0950    0.0400 C   0  0  0  0  0  0  0  0  0  0  0  0
   15.8590    7.5970    1.4750 C   0  0  0  0  0  0  0  0  0  0  0  0
   16.6110    8.9210    1.6460 C   0  0  0  0  0  0  0  0  0  0  0  0
   15.7520    9.8610    3.8970 C   0  0  2  0  0  3  0  0  0  0  0  0
   14.0110   10.3950    2.2850 C   0  0  0  0  0  0  0  0  0  0  0  0
   15.3660   10.2520    6.3560 C   0  0  0  0  0  0  0  0  0  0  0  0
   14.1240   10.9000    6.3270 C   0  0  0  0  0  0  0  0  0  0  0  0
   14.6290    3.6490   -1.9930 O   0  0  0  0  0  0  0  0  0  0  0  0
   16.7030    9.2880    3.0710 N   0  0  0  0  0  0  0  0  0  0  0  0
   14.5620   10.3490    3.5230 N   0  0  0  0  0  0  0  0  0  0  0  0
   13.5500   10.4270    1.2430 N   0  0  0  0  0  0  0  0  0  0  0  0
   16.1320    9.9190    5.2250 N   0  0  0  0  0  0  0  0  0  0  0  0
   13.4630   11.1800    7.5080 C   0  0  0  0  0  0  0  0  0  0  0  0
   13.9930   10.8480    8.6690 N   0  0  0  0  0  0  0  0  0  0  0  0
   15.1620   10.2420    8.7530 C   0  0  0  0  0  0  0  0  0  0  0  0
   15.8790    9.9340    7.6130 C   0  0  0  0  0  0  0  0  0  0  0  0
   20.1080    2.3980   -3.6900 Cl  0  0  0  0  0  0  0  0  0  0  0  0
   15.4736    3.5839   -4.4966 H   0  0  0  0  0  0  0  0  0  0  0  0
   17.7735    3.0572   -5.1982 H   0  0  0  0  0  0  0  0  0  0  0  0
   18.9153    2.5400   -1.1113 H   0  0  0  0  0  0  0  0  0  0  0  0
   16.6145    3.0625   -0.4013 H   0  0  0  0  0  0  0  0  0  0  0  0
   13.9654    4.9309   -3.4854 H   0  0  0  0  0  0  0  0  0  0  0  0
   13.0467    4.9925   -1.9431 H   0  0  0  0  0  0  0  0  0  0  0  0
   14.4995    7.0052   -2.2949 H   0  0  0  0  0  0  0  0  0  0  0  0
   15.9390    5.9307   -2.3090 H   0  0  0  0  0  0  0  0  0  0  0  0
   15.2000    5.1159    0.0130 H   0  0  0  0  0  0  0  0  0  0  0  0
   14.0069    6.4587    0.0084 H   0  0  0  0  0  0  0  0  0  0  0  0
   16.0705    7.9562   -0.6443 H   0  0  0  0  0  0  0  0  0  0  0  0
   17.0483    6.5858   -0.0177 H   0  0  0  0  0  0  0  0  0  0  0  0
   16.2461    6.8557    2.1895 H   0  0  0  0  0  0  0  0  0  0  0  0
   14.7854    7.7543    1.6553 H   0  0  0  0  0  0  0  0  0  0  0  0
   16.0751    9.7134    1.1030 H   0  0  0  0  0  0  0  0  0  0  0  0
   17.6255    8.8159    1.2341 H   0  0  0  0  0  0  0  0  0  0  0  0
   13.6816   11.1817    5.3783 H   0  0  0  0  0  0  0  0  0  0  0  0
   17.6093    9.0883    3.5179 H   0  0  0  0  0  0  0  0  0  0  0  0
   13.9861   10.7437    4.2803 H   0  0  0  0  0  0  0  0  0  0  0  0
   17.1173    9.6847    5.4127 H   0  0  0  0  0  0  0  0  0  0  0  0
   12.5001   11.6771    7.4797 H   0  0  0  0  0  0  0  0  0  0  0  0
   15.5637    9.9833    9.7260 H   0  0  0  0  0  0  0  0  0  0  0  0
   16.8424    9.4441    7.6959 H   0  0  0  0  0  0  0  0  0  0  0  0
  1  2  2  0  0  0  0
  1 27  1  0  0  0  0
  2  3  1  0  0  0  0
  2 28  1  0  0  0  0
  3 26  1  0  0  0  0
  4  3  2  0  0  0  0
  4 29  1  0  0  0  0
  5  4  1  0  0  0  0
  5 30  1  0  0  0  0
  6  1  1  0  0  0  0
  6  5  2  0  0  0  0
  7 17  1  0  0  0  0
  7 31  1  0  0  0  0
  7 32  1  0  0  0  0
  8  7  1  0  0  0  0
  8 33  1  0  0  0  0
  8 34  1  0  0  0  0
  9  8  1  0  0  0  0
  9 35  1  0  0  0  0
  9 36  1  0  0  0  0
 10  9  1  0  0  0  0
 10 37  1  0  0  0  0
 10 38  1  0  0  0  0
 11 10  1  0  0  0  0
 11 39  1  0  0  0  0
 11 40  1  0  0  0  0
 12 11  1  0  0  0  0
 12 41  1  0  0  0  0
 12 42  1  0  0  0  0
 13 18  1  6  0  0  0
 13 19  1  0  0  0  0
 14 20  3  0  0  0  0
 15 16  2  0  0  0  0
 15 21  1  0  0  0  0
 15 25  1  0  0  0  0
 16 22  1  0  0  0  0
 16 43  1  0  0  0  0
 17  6  1  0  0  0  0
 18 12  1  0  0  0  0
 18 44  1  0  0  0  0
 19 14  1  0  0  0  0
 19 45  1  0  0  0  0
 21 13  1  0  0  0  0
 21 46  1  0  0  0  0
 22 23  2  0  0  0  0
 22 47  1  0  0  0  0
 23 24  1  0  0  0  0
 24 25  2  0  0  0  0
 24 48  1  0  0  0  0
 25 49  1  0  0  0  0
M  END
