4o1d_ligand
 OpenBabel08222323353D

 58 60  0  0  0  0  0  0  0  0999 V2000
   15.4820    3.3830   -8.8060 C   0  0  0  0  0  0  0  0  0  0  0  0
   16.1690    3.7910   -9.9350 C   0  0  0  0  0  0  0  0  0  0  0  0
   17.4870    4.1940   -9.8420 C   0  0  0  0  0  0  0  0  0  0  0  0
   18.1180    4.1880   -8.6110 C   0  0  0  0  0  0  0  0  0  0  0  0
   17.4400    3.7920   -7.4730 C   0  0  0  0  0  0  0  0  0  0  0  0
   16.1060    3.3830   -7.5570 C   0  0  0  0  0  0  0  0  0  0  0  0
   15.3830    2.9510   -6.3310 C   0  0  0  0  0  0  0  0  0  0  0  0
   15.5850    1.8230   -5.9110 O   0  0  0  0  0  0  0  0  0  0  0  0
   14.5110    3.7780   -5.6960 N   0  0  0  0  0  0  0  0  0  0  0  0
   14.2990    5.1320   -6.1700 C   0  0  0  0  0  0  0  0  0  0  0  0
   15.0490    5.9300   -5.0990 C   0  0  0  0  0  0  0  0  0  0  0  0
   13.7920    3.4050   -4.4570 C   0  0  0  0  0  0  0  0  0  0  0  0
   14.1930    4.3510   -3.3090 C   0  0  0  0  0  0  0  0  0  0  0  0
   14.2980    5.8090   -3.7750 C   0  0  0  0  0  0  0  0  0  0  0  0
   15.1010    6.6450   -2.7710 C   0  0  0  0  0  0  0  0  0  0  0  0
   14.3110    6.9270   -1.5050 C   0  0  0  0  0  0  0  0  0  0  0  0
   15.2720    7.4000   -0.4130 C   0  0  0  0  0  0  0  0  0  0  0  0
   15.3060    8.9270   -0.3170 C   0  0  0  0  0  0  0  0  0  0  0  0
   15.5560    9.2100    1.0870 N   0  0  0  0  0  0  0  0  0  0  0  0
   14.8330   10.0590    1.8480 C   0  0  0  0  0  0  0  0  0  0  0  0
   13.8410   10.6320    1.4140 O   0  0  0  0  0  0  0  0  0  0  0  0
   15.2140   10.1260    3.2650 C   0  0  0  0  0  0  0  0  0  0  0  0
   14.4910   10.8160    4.1690 C   0  0  0  0  0  0  0  0  0  0  0  0
   14.8260   10.7200    5.6010 C   0  0  0  0  0  0  0  0  0  0  0  0
   15.9660   10.0300    6.0680 C   0  0  0  0  0  0  0  0  0  0  0  0
   16.1690    9.9240    7.3960 C   0  0  0  0  0  0  0  0  0  0  0  0
   15.3330   10.4360    8.2810 C   0  0  0  0  0  0  0  0  0  0  0  0
   14.1780   11.0890    7.8720 N   0  0  0  0  0  0  0  0  0  0  0  0
   13.9130   11.2290    6.5280 C   0  0  0  0  0  0  0  0  0  0  0  0
   14.4506    3.0606   -8.8916 H   0  0  0  0  0  0  0  0  0  0  0  0
   15.6706    3.7945  -10.8976 H   0  0  0  0  0  0  0  0  0  0  0  0
   18.0235    4.5130  -10.7283 H   0  0  0  0  0  0  0  0  0  0  0  0
   19.1545    4.4969   -8.5379 H   0  0  0  0  0  0  0  0  0  0  0  0
   17.9441    3.7987   -6.5134 H   0  0  0  0  0  0  0  0  0  0  0  0
   13.2300    5.3904   -6.1932 H   0  0  0  0  0  0  0  0  0  0  0  0
   14.7349    5.2846   -7.1683 H   0  0  0  0  0  0  0  0  0  0  0  0
   15.1036    6.9874   -5.3971 H   0  0  0  0  0  0  0  0  0  0  0  0
   16.0666    5.5283   -4.9842 H   0  0  0  0  0  0  0  0  0  0  0  0
   14.0497    2.3711   -4.1837 H   0  0  0  0  0  0  0  0  0  0  0  0
   12.7080    3.4797   -4.6285 H   0  0  0  0  0  0  0  0  0  0  0  0
   15.1687    4.0340   -2.9121 H   0  0  0  0  0  0  0  0  0  0  0  0
   13.4352    4.2860   -2.5143 H   0  0  0  0  0  0  0  0  0  0  0  0
   13.2836    6.2206   -3.8823 H   0  0  0  0  0  0  0  0  0  0  0  0
   15.3713    7.6019   -3.2414 H   0  0  0  0  0  0  0  0  0  0  0  0
   16.0162    6.0964   -2.5037 H   0  0  0  0  0  0  0  0  0  0  0  0
   13.8019    6.0091   -1.1759 H   0  0  0  0  0  0  0  0  0  0  0  0
   13.5640    7.7098   -1.7031 H   0  0  0  0  0  0  0  0  0  0  0  0
   16.2833    7.0341   -0.6441 H   0  0  0  0  0  0  0  0  0  0  0  0
   14.9450    6.9886    0.5533 H   0  0  0  0  0  0  0  0  0  0  0  0
   14.3434    9.3558   -0.6324 H   0  0  0  0  0  0  0  0  0  0  0  0
   16.1124    9.3360   -0.9434 H   0  0  0  0  0  0  0  0  0  0  0  0
   16.3231    8.7392    1.5229 H   0  0  0  0  0  0  0  0  0  0  0  0
   16.1092    9.6014    3.5956 H   0  0  0  0  0  0  0  0  0  0  0  0
   13.6621   11.4423    3.8425 H   0  0  0  0  0  0  0  0  0  0  0  0
   16.6681    9.5917    5.3680 H   0  0  0  0  0  0  0  0  0  0  0  0
   17.0494    9.4001    7.7503 H   0  0  0  0  0  0  0  0  0  0  0  0
   15.5511   10.3454    9.3390 H   0  0  0  0  0  0  0  0  0  0  0  0
   13.0096   11.7266    6.1943 H   0  0  0  0  0  0  0  0  0  0  0  0
  1  2  2  0  0  0  0
  1  6  1  0  0  0  0
  1 30  1  0  0  0  0
  2  3  1  0  0  0  0
  2 31  1  0  0  0  0
  3  4  2  0  0  0  0
  3 32  1  0  0  0  0
  4  5  1  0  0  0  0
  4 33  1  0  0  0  0
  5  6  2  0  0  0  0
  5 34  1  0  0  0  0
  6  7  1  0  0  0  0
  7  8  2  0  0  0  0
  7  9  1  0  0  0  0
  9 10  1  0  0  0  0
  9 12  1  0  0  0  0
 10 11  1  0  0  0  0
 10 35  1  0  0  0  0
 10 36  1  0  0  0  0
 11 14  1  0  0  0  0
 11 37  1  0  0  0  0
 11 38  1  0  0  0  0
 12 13  1  0  0  0  0
 12 39  1  0  0  0  0
 12 40  1  0  0  0  0
 13 14  1  0  0  0  0
 13 41  1  0  0  0  0
 13 42  1  0  0  0  0
 14 15  1  0  0  0  0
 14 43  1  0  0  0  0
 15 16  1  0  0  0  0
 15 44  1  0  0  0  0
 15 45  1  0  0  0  0
 16 17  1  0  0  0  0
 16 46  1  0  0  0  0
 16 47  1  0  0  0  0
 17 18  1  0  0  0  0
 17 48  1  0  0  0  0
 17 49  1  0  0  0  0
 18 19  1  0  0  0  0
 18 50  1  0  0  0  0
 18 51  1  0  0  0  0
 19 20  1  0  0  0  0
 19 52  1  0  0  0  0
 20 21  2  0  0  0  0
 20 22  1  0  0  0  0
 22 23  2  0  0  0  0
 22 53  1  0  0  0  0
 23 24  1  0  0  0  0
 23 54  1  0  0  0  0
 24 25  2  0  0  0  0
 24 29  1  0  0  0  0
 25 26  1  0  0  0  0
 25 55  1  0  0  0  0
 26 27  2  0  0  0  0
 26 56  1  0  0  0  0
 27 28  1  0  0  0  0
 27 57  1  0  0  0  0
 28 29  2  0  0  0  0
 29 58  1  0  0  0  0
M  END
