4o1l_ligand
 OpenBabel08222323353D

 35 37  0  0  1  0  0  0  0  0999 V2000
   16.2100   22.5570   14.0030 C   0  0  0  0  0  0  0  0  0  0  0  0
   16.6050   21.6840   14.5540 C   0  0  0  0  0  0  0  0  0  0  0  0
   17.1140   20.6550   15.1040 C   0  0  0  0  0  0  0  0  0  0  0  0
   18.4510   20.6160   15.1380 C   0  0  0  0  0  0  0  0  0  0  0  0
   16.5630   19.6180   15.7730 C   0  0  0  0  0  0  0  0  0  0  0  0
   15.2920   19.1740   16.0760 C   0  0  0  0  0  0  0  0  0  0  0  0
   14.2260   19.8610   15.6540 N   0  0  0  0  0  0  0  0  0  0  0  0
   15.1020   18.0660   16.7810 N   0  0  0  0  0  0  0  0  0  0  0  0
   16.2170   17.3350   17.1990 C   0  0  0  0  0  0  0  0  0  0  0  0
   17.4870   17.7700   16.8410 N   0  0  0  0  0  0  0  0  0  0  0  0
   17.6400   18.9010   16.1820 C   0  0  0  0  0  0  0  0  0  0  0  0
   18.7740   19.5080   15.7860 N   0  0  0  0  0  0  0  0  0  0  0  0
   20.1190   18.9730   16.0500 C   0  0  2  0  0  0  0  0  0  0  0  0
   20.8750   19.8880   16.7590 O   0  0  0  0  0  0  0  0  0  0  0  0
   22.2680   19.4050   16.5980 C   0  0  2  0  0  0  0  0  0  0  0  0
   23.2530   20.5090   16.7360 C   0  0  0  0  0  0  0  0  0  0  0  0
   23.4180   20.6380   18.1180 O   0  0  0  0  0  0  0  0  0  0  0  0
   22.3270   18.8920   15.1770 C   0  0  1  0  0  0  0  0  0  0  0  0
   22.9330   17.6000   15.1980 O   0  0  0  0  0  0  0  0  0  0  0  0
   20.8710   18.8140   14.7560 C   0  0  1  0  0  0  0  0  0  0  0  0
   20.6100   17.5110   14.2200 O   0  0  0  0  0  0  0  0  0  0  0  0
   15.8326   23.3910   13.4766 H   0  0  0  0  0  0  0  0  0  0  0  0
   19.1367   21.3496   14.7166 H   0  0  0  0  0  0  0  0  0  0  0  0
   13.2773   19.5297   15.8801 H   0  0  0  0  0  0  0  0  0  0  0  0
   14.3532   20.7217   15.1027 H   0  0  0  0  0  0  0  0  0  0  0  0
   16.0926   16.4387   17.7958 H   0  0  0  0  0  0  0  0  0  0  0  0
   20.0438   18.0170   16.5888 H   0  0  0  0  0  0  0  0  0  0  0  0
   22.4910   18.6087   17.3234 H   0  0  0  0  0  0  0  0  0  0  0  0
   22.8620   21.4399   16.2995 H   0  0  0  0  0  0  0  0  0  0  0  0
   24.2049   20.2479   16.2505 H   0  0  0  0  0  0  0  0  0  0  0  0
   23.7426   19.8195   18.4748 H   0  0  0  0  0  0  0  0  0  0  0  0
   22.8937   19.5691   14.5209 H   0  0  0  0  0  0  0  0  0  0  0  0
   22.9797   17.2590   14.3126 H   0  0  0  0  0  0  0  0  0  0  0  0
   20.6097   19.5970   14.0290 H   0  0  0  0  0  0  0  0  0  0  0  0
   21.1703   17.3613   13.4675 H   0  0  0  0  0  0  0  0  0  0  0  0
  1  2  3  0  0  0  0
  1 22  1  0  0  0  0
  2  3  1  0  0  0  0
  3  4  2  0  0  0  0
  3  5  1  0  0  0  0
  4 12  1  0  0  0  0
  4 23  1  0  0  0  0
  5  6  2  0  0  0  0
  5 11  1  0  0  0  0
  6  7  1  0  0  0  0
  6  8  1  0  0  0  0
  7 24  1  0  0  0  0
  7 25  1  0  0  0  0
  8  9  2  0  0  0  0
  9 10  1  0  0  0  0
  9 26  1  0  0  0  0
 10 11  2  0  0  0  0
 11 12  1  0  0  0  0
 12 13  1  0  0  0  0
 13 14  1  0  0  0  0
 13 20  1  0  0  0  0
 13 27  1  1  0  0  0
 14 15  1  0  0  0  0
 15 16  1  0  0  0  0
 15 18  1  0  0  0  0
 15 28  1  1  0  0  0
 16 17  1  0  0  0  0
 16 29  1  0  0  0  0
 16 30  1  0  0  0  0
 17 31  1  0  0  0  0
 18 19  1  0  0  0  0
 18 20  1  0  0  0  0
 18 32  1  6  0  0  0
 19 33  1  0  0  0  0
 20 21  1  0  0  0  0
 20 34  1  6  0  0  0
 21 35  1  0  0  0  0
M  END
