4o24_ligand
 OpenBabel08222323353D

 34 35  0  0  0  0  0  0  0  0999 V2000
    1.3480  454.9810  104.3800 C   0  0  0  0  0  0  0  0  0  0  0  0
    0.1500  454.9560  105.3240 C   0  0  0  0  0  0  0  0  0  0  0  0
   -1.1010  455.2470  104.4910 C   0  0  0  0  0  0  0  0  0  0  0  0
    0.2420  455.9800  106.4820 C   0  0  0  0  0  0  0  0  0  0  0  0
    0.2560  457.4460  106.1310 N   0  0  0  0  0  0  0  0  0  0  0  0
    1.0190  458.2440  105.3440 C   0  0  0  0  0  0  0  0  0  0  0  0
    1.9640  457.8420  104.6710 O   0  0  0  0  0  0  0  0  0  0  0  0
   -0.6970  458.1480  106.7570 C   0  0  0  0  0  0  0  0  0  0  0  0
   -1.8560  457.4830  107.8480 S   0  0  0  0  0  0  0  0  0  0  0  0
   -0.6230  459.7170  106.3460 S   0  0  0  0  0  0  0  0  0  0  0  0
    0.6760  459.5360  105.3270 C   0  0  0  0  0  0  0  0  0  0  0  0
    1.3630  460.4130  104.5710 C   0  0  0  0  0  0  0  0  0  0  0  0
    1.0910  461.7870  104.4630 C   0  0  0  0  0  0  0  0  0  0  0  0
    1.9180  462.5070  103.6050 C   0  0  0  0  0  0  0  0  0  0  0  0
    1.7440  463.8720  103.4120 C   0  0  0  0  0  0  0  0  0  0  0  0
    0.7250  464.5400  104.0770 C   0  0  0  0  0  0  0  0  0  0  0  0
    0.5510  465.8760  103.8920 O   0  0  0  0  0  0  0  0  0  0  0  0
   -0.1130  463.8380  104.9350 C   0  0  0  0  0  0  0  0  0  0  0  0
    0.0710  462.4730  105.1200 C   0  0  0  0  0  0  0  0  0  0  0  0
    1.2075  454.2293  103.5893 H   0  0  0  0  0  0  0  0  0  0  0  0
    2.2643  454.7527  104.9442 H   0  0  0  0  0  0  0  0  0  0  0  0
    1.4361  455.9789  103.9257 H   0  0  0  0  0  0  0  0  0  0  0  0
    0.0720  453.9499  105.7617 H   0  0  0  0  0  0  0  0  0  0  0  0
   -1.9866  455.2364  105.1434 H   0  0  0  0  0  0  0  0  0  0  0  0
   -1.2101  454.4778  103.7123 H   0  0  0  0  0  0  0  0  0  0  0  0
   -1.0053  456.2359  104.0188 H   0  0  0  0  0  0  0  0  0  0  0  0
    1.1693  455.7670  107.0341 H   0  0  0  0  0  0  0  0  0  0  0  0
   -0.6235  455.8093  107.1391 H   0  0  0  0  0  0  0  0  0  0  0  0
    2.2008  460.0242  103.9941 H   0  0  0  0  0  0  0  0  0  0  0  0
    2.7131  461.9927  103.0773 H   0  0  0  0  0  0  0  0  0  0  0  0
    2.4028  464.4142  102.7434 H   0  0  0  0  0  0  0  0  0  0  0  0
   -0.1832  466.1741  104.4159 H   0  0  0  0  0  0  0  0  0  0  0  0
   -0.9090  464.3544  105.4592 H   0  0  0  0  0  0  0  0  0  0  0  0
   -0.5905  461.9322  105.7871 H   0  0  0  0  0  0  0  0  0  0  0  0
  1  2  1  0  0  0  0
  1 20  1  0  0  0  0
  1 21  1  0  0  0  0
  1 22  1  0  0  0  0
  2  3  1  0  0  0  0
  2  4  1  0  0  0  0
  2 23  1  0  0  0  0
  3 24  1  0  0  0  0
  3 25  1  0  0  0  0
  3 26  1  0  0  0  0
  4  5  1  0  0  0  0
  4 27  1  0  0  0  0
  4 28  1  0  0  0  0
  5  6  1  0  0  0  0
  5  8  1  0  0  0  0
  6  7  2  0  0  0  0
  6 11  1  0  0  0  0
  8  9  2  0  0  0  0
  8 10  1  0  0  0  0
 10 11  1  0  0  0  0
 11 12  2  0  0  0  0
 12 13  1  0  0  0  0
 12 29  1  0  0  0  0
 13 14  2  0  0  0  0
 13 19  1  0  0  0  0
 14 15  1  0  0  0  0
 14 30  1  0  0  0  0
 15 16  2  0  0  0  0
 15 31  1  0  0  0  0
 16 17  1  0  0  0  0
 16 18  1  0  0  0  0
 17 32  1  0  0  0  0
 18 19  2  0  0  0  0
 18 33  1  0  0  0  0
 19 34  1  0  0  0  0
M  END
