4o2a_ligand
 OpenBabel08222323353D

 46 49  0  0  0  0  0  0  0  0999 V2000
   17.3360   63.5760   43.5860 C   0  0  0  0  0  0  0  0  0  0  0  0
   16.2280   64.2930   42.8700 C   0  0  0  0  0  0  0  0  0  0  0  0
   15.6810   65.2450   43.4220 O   0  0  0  0  0  0  0  0  0  0  0  0
   15.4210   63.3270   38.8400 C   0  0  0  0  0  0  0  0  0  0  0  0
   16.3340   62.5440   39.5650 C   0  0  0  0  0  0  0  0  0  0  0  0
   16.5950   62.8660   40.8850 C   0  0  0  0  0  0  0  0  0  0  0  0
   14.7710   64.4240   39.4270 C   0  0  0  0  0  0  0  0  0  0  0  0
   15.0410   64.7340   40.7480 C   0  0  0  0  0  0  0  0  0  0  0  0
   15.9540   63.9610   41.4840 C   0  0  0  0  0  0  0  0  0  0  0  0
   15.1570   63.0070   37.5140 N   0  0  0  0  0  0  0  0  0  0  0  0
   17.9730   65.1330   45.5060 C   0  0  0  0  0  0  0  0  0  0  0  0
   17.2870   63.9820   47.1960 C   0  0  0  0  0  0  0  0  0  0  0  0
   17.3710   63.9880   45.0020 N   0  0  0  0  0  0  0  0  0  0  0  0
   16.9290   63.2390   46.0830 C   0  0  0  0  0  0  0  0  0  0  0  0
   16.9670   63.4800   48.4760 C   0  0  0  0  0  0  0  0  0  0  0  0
   16.2590   62.0050   46.1110 C   0  0  0  0  0  0  0  0  0  0  0  0
   16.3070   62.2650   48.5390 C   0  0  0  0  0  0  0  0  0  0  0  0
   15.9550   61.5320   47.3730 C   0  0  0  0  0  0  0  0  0  0  0  0
   17.9220   65.1320   46.8400 N   0  0  0  0  0  0  0  0  0  0  0  0
   17.2590   70.2390   46.7180 C   0  0  0  0  0  0  0  0  0  0  0  0
   19.1870   67.3180   45.0160 C   0  0  0  0  0  0  0  0  0  0  0  0
   19.5640   67.9700   43.9500 N   0  0  0  0  0  0  0  0  0  0  0  0
   18.5510   66.1390   44.6140 C   0  0  0  0  0  0  0  0  0  0  0  0
   18.5700   66.0800   43.3070 N   0  0  0  0  0  0  0  0  0  0  0  0
   16.2780   70.1080   47.2880 N   0  0  0  0  0  0  0  0  0  0  0  0
   19.1910   67.1970   42.8980 O   0  0  0  0  0  0  0  0  0  0  0  0
   18.8640   67.9740   46.2160 N   0  0  0  0  0  0  0  0  0  0  0  0
   19.5000   69.2920   46.3920 C   0  0  0  0  0  0  0  0  0  0  0  0
   18.5230   70.3970   45.9830 C   0  0  0  0  0  0  0  0  0  0  0  0
   18.2968   63.8233   43.1108 H   0  0  0  0  0  0  0  0  0  0  0  0
   17.1660   62.4909   43.5265 H   0  0  0  0  0  0  0  0  0  0  0  0
   16.8271   61.6996   39.0972 H   0  0  0  0  0  0  0  0  0  0  0  0
   17.2966   62.2707   41.4580 H   0  0  0  0  0  0  0  0  0  0  0  0
   14.0686   65.0188   38.8543 H   0  0  0  0  0  0  0  0  0  0  0  0
   14.5460   65.5768   41.2168 H   0  0  0  0  0  0  0  0  0  0  0  0
   15.6289   62.2040   37.0742 H   0  0  0  0  0  0  0  0  0  0  0  0
   14.4894   63.5728   36.9707 H   0  0  0  0  0  0  0  0  0  0  0  0
   17.2283   64.0255   49.3756 H   0  0  0  0  0  0  0  0  0  0  0  0
   15.9994   61.4634   45.2086 H   0  0  0  0  0  0  0  0  0  0  0  0
   16.0498   61.8586   49.5105 H   0  0  0  0  0  0  0  0  0  0  0  0
   15.4386   60.5845   47.4759 H   0  0  0  0  0  0  0  0  0  0  0  0
   18.2314   67.5652   46.9186 H   0  0  0  0  0  0  0  0  0  0  0  0
   20.4008   69.3498   45.7634 H   0  0  0  0  0  0  0  0  0  0  0  0
   19.7802   69.4244   47.4474 H   0  0  0  0  0  0  0  0  0  0  0  0
   18.9619   71.3780   46.2173 H   0  0  0  0  0  0  0  0  0  0  0  0
   18.3282   70.3310   44.9024 H   0  0  0  0  0  0  0  0  0  0  0  0
  1  2  1  0  0  0  0
  1 30  1  0  0  0  0
  1 31  1  0  0  0  0
  2  3  2  0  0  0  0
  2  9  1  0  0  0  0
  4 10  1  0  0  0  0
  5  4  2  0  0  0  0
  5 32  1  0  0  0  0
  6  5  1  0  0  0  0
  6 33  1  0  0  0  0
  7  4  1  0  0  0  0
  7 34  1  0  0  0  0
  8  7  2  0  0  0  0
  8 35  1  0  0  0  0
  9  6  2  0  0  0  0
  9  8  1  0  0  0  0
 10 36  1  0  0  0  0
 10 37  1  0  0  0  0
 11 13  1  0  0  0  0
 11 19  2  0  0  0  0
 12 14  2  0  0  0  0
 12 15  1  0  0  0  0
 13  1  1  0  0  0  0
 13 14  1  0  0  0  0
 14 16  1  0  0  0  0
 15 17  2  0  0  0  0
 15 38  1  0  0  0  0
 16 18  2  0  0  0  0
 16 39  1  0  0  0  0
 17 18  1  0  0  0  0
 17 40  1  0  0  0  0
 18 41  1  0  0  0  0
 19 12  1  0  0  0  0
 20 25  3  0  0  0  0
 21 22  2  0  0  0  0
 21 23  1  0  0  0  0
 22 26  1  0  0  0  0
 23 11  1  0  0  0  0
 23 24  2  0  0  0  0
 24 26  1  0  0  0  0
 27 21  1  0  0  0  0
 27 42  1  0  0  0  0
 28 27  1  0  0  0  0
 28 29  1  0  0  0  0
 28 43  1  0  0  0  0
 28 44  1  0  0  0  0
 29 20  1  0  0  0  0
 29 45  1  0  0  0  0
 29 46  1  0  0  0  0
M  END
