4o37_ligand
 OpenBabel08222323353D

240243  0  0  1  0  0  0  0  0999 V2000
  -13.9150    9.3620   19.4840 N   0  3  0  0  0  0  0  0  0  0  0  0
  -13.1050    8.5210   18.5720 C   0  0  2  0  0  0  0  0  0  0  0  0
  -13.5240    7.0140   18.6770 C   0  0  0  0  0  0  0  0  0  0  0  0
  -13.6960    6.4600   19.7780 O   0  0  0  0  0  0  0  0  0  0  0  0
  -11.6240    8.6550   18.9130 C   0  0  0  0  0  0  0  0  0  0  0  0
  -10.7490    8.9210   17.7040 C   0  0  0  0  0  0  0  0  0  0  0  0
   -9.2770    8.6330   18.0320 C   0  0  0  0  0  0  0  0  0  0  0  0
   -8.5450    9.8310   18.6630 C   0  0  0  0  0  0  0  0  0  0  0  0
   -7.0960    9.5660   18.9550 N   0  3  0  0  0  0  0  0  0  0  0  0
  -13.7580    6.4060   17.5300 N   0  0  0  0  0  0  0  0  0  0  0  0
  -13.9920    4.9610   17.4850 C   0  0  2  0  0  0  0  0  0  0  0  0
  -12.6360    4.2830   17.6730 C   0  0  0  0  0  0  0  0  0  0  0  0
  -11.6820    4.6900   17.0460 O   0  0  0  0  0  0  0  0  0  0  0  0
  -14.5510    4.6430   16.1160 C   0  0  0  0  0  0  0  0  0  0  0  0
  -14.8540    3.1700   15.9570 C   0  0  0  0  0  0  0  0  0  0  0  0
  -15.4260    2.8180   14.5570 C   0  0  0  0  0  0  0  0  0  0  0  0
  -14.9370    3.3030   13.5510 O   0  5  0  0  0  0  0  0  0  0  0  0
  -16.4040    2.0340   14.4910 O   0  0  0  0  0  0  0  0  0  0  0  0
  -12.5700    3.2540   18.5150 N   0  0  0  0  0  0  0  0  0  0  0  0
  -11.2760    2.5720   18.6650 C   0  0  2  0  0  0  0  0  0  0  0  0
  -11.0080    1.6700   17.4470 C   0  0  0  0  0  0  0  0  0  0  0  0
  -11.9190    1.3320   16.6820 O   0  0  0  0  0  0  0  0  0  0  0  0
  -11.2910    1.6440   19.8900 C   0  0  2  0  0  0  0  0  0  0  0  0
  -12.2830    0.6250   19.6930 O   0  0  0  0  0  0  0  0  0  0  0  0
  -11.5930    2.4580   21.1630 C   0  0  0  0  0  0  0  0  0  0  0  0
   -9.7810    1.2020   17.3080 N   0  0  0  0  0  0  0  0  0  0  0  0
   -9.4210    0.2420   16.1890 C   0  0  2  0  0  0  0  0  0  0  0  0
  -10.1770   -1.0690   16.3920 C   0  0  0  0  0  0  0  0  0  0  0  0
  -10.7150   -1.6170   15.4110 O   0  0  0  0  0  0  0  0  0  0  0  0
   -7.9200   -0.0160   16.1220 C   0  0  0  0  0  0  0  0  0  0  0  0
  -10.3940   -1.5010   17.6220 N   0  0  0  0  0  0  0  0  0  0  0  0
  -11.1180   -2.7540   17.8140 C   0  0  2  0  0  0  0  0  0  0  0  0
  -12.5550   -2.6090   17.4030 C   0  0  0  0  0  0  0  0  0  0  0  0
  -13.2120   -3.5020   16.8620 O   0  0  0  0  0  0  0  0  0  0  0  0
  -11.0570   -3.2030   19.2800 C   0  0  0  0  0  0  0  0  0  0  0  0
  -13.1550   -1.4450   17.7370 N   0  0  0  0  0  0  0  0  0  0  0  0
  -14.5470   -1.2280   17.3340 C   0  0  2  0  0  0  0  0  0  0  0  0
  -14.7190   -1.0590   15.8210 C   0  0  0  0  0  0  0  0  0  0  0  0
  -15.6770   -1.5830   15.2610 O   0  0  0  0  0  0  0  0  0  0  0  0
  -15.0660    0.0740   18.0470 C   0  0  0  0  0  0  0  0  0  0  0  0
  -13.7410   -0.3890   15.2300 N   0  0  0  0  0  0  0  0  0  0  0  0
  -13.7600   -0.2910   13.7670 C   0  0  2  0  0  0  0  0  0  0  0  0
  -13.8490   -1.6660   13.0790 C   0  0  0  0  0  0  0  0  0  0  0  0
  -14.5540   -1.9760   12.1450 O   0  0  0  0  0  0  0  0  0  0  0  0
  -12.6140    0.5630   13.3340 C   0  0  0  0  0  0  0  0  0  0  0  0
  -12.3980    0.7970   11.8670 C   0  0  0  0  0  0  0  0  0  0  0  0
  -11.9100   -0.2330   11.0250 C   0  0  0  0  0  0  0  0  0  0  0  0
  -11.7290   -0.0290    9.7200 N   0  0  0  0  0  0  0  0  0  0  0  0
  -11.9650    1.2190    9.1240 C   0  0  0  0  0  0  0  0  0  0  0  0
  -12.4350    2.2270    9.9510 C   0  0  0  0  0  0  0  0  0  0  0  0
  -12.6800    2.0460   11.3030 C   0  0  0  0  0  0  0  0  0  0  0  0
  -12.8580   -2.5440   13.6210 N   0  0  0  0  0  0  0  0  0  0  0  0
  -12.8270   -3.9180   13.0100 C   0  0  2  0  0  0  0  0  0  0  0  0
  -14.1750   -4.5900   13.1710 C   0  0  0  0  0  0  0  0  0  0  0  0
  -14.6310   -5.2660   12.2750 O   0  0  0  0  0  0  0  0  0  0  0  0
  -11.7520   -4.7120   13.8110 C   0  0  0  0  0  0  0  0  0  0  0  0
  -11.7320   -6.2060   13.4360 C   0  0  0  0  0  0  0  0  0  0  0  0
  -12.5910   -7.0660   14.0740 C   0  0  0  0  0  0  0  0  0  0  0  0
  -10.8830   -6.6590   12.3950 C   0  0  0  0  0  0  0  0  0  0  0  0
  -12.6490   -8.4270   13.7000 C   0  0  0  0  0  0  0  0  0  0  0  0
  -10.9420   -8.0130   12.0490 C   0  0  0  0  0  0  0  0  0  0  0  0
  -11.8030   -8.8720   12.6760 C   0  0  0  0  0  0  0  0  0  0  0  0
  -14.8120   -4.4600   14.3290 N   0  0  0  0  0  0  0  0  0  0  0  0
  -16.0900   -5.1320   14.5440 C   0  0  2  0  0  0  0  0  0  0  0  0
  -17.1930   -4.6300   13.6120 C   0  0  0  0  0  0  0  0  0  0  0  0
  -17.9670   -5.3620   12.9600 O   0  0  0  0  0  0  0  0  0  0  0  0
  -16.5790   -5.0210   16.0150 C   0  0  0  0  0  0  0  0  0  0  0  0
  -15.6400   -5.7870   16.9400 C   0  0  0  0  0  0  0  0  0  0  0  0
  -15.7670   -5.3360   18.3710 C   0  0  0  0  0  0  0  0  0  0  0  0
  -16.2090   -4.1940   18.6780 O   0  5  0  0  0  0  0  0  0  0  0  0
  -15.2010   -6.0660   19.2190 O   0  0  0  0  0  0  0  0  0  0  0  0
  -17.2540   -3.2930   13.5240 N   0  0  0  0  0  0  0  0  0  0  0  0
  -18.2890   -2.7320   12.6620 C   0  0  2  0  0  0  0  0  0  0  0  0
  -18.0890   -3.1360   11.1550 C   0  0  0  0  0  0  0  0  0  0  0  0
  -19.0450   -3.3570   10.4700 O   0  0  0  0  0  0  0  0  0  0  0  0
  -18.2120   -1.1810   12.8560 C   0  0  0  0  0  0  0  0  0  0  0  0
  -19.1740   -0.4400   11.9540 C   0  0  0  0  0  0  0  0  0  0  0  0
  -19.1520    1.0840   12.2360 C   0  0  0  0  0  0  0  0  0  0  0  0
  -17.8570    1.7340   12.1410 N   0  0  0  0  0  0  0  0  0  0  0  0
  -17.3990    2.3650   11.0760 C   0  0  0  0  0  3  0  0  0  0  0  0
  -18.1620    2.3670    9.9670 N   0  0  0  0  0  0  0  0  0  0  0  0
  -16.2460    3.0290   11.0810 N   0  0  0  0  0  0  0  0  0  0  0  0
  -16.7870   -3.0670   10.7900 N   0  0  0  0  0  0  0  0  0  0  0  0
  -16.4750   -3.5170    9.3770 C   0  0  2  0  0  0  0  0  0  0  0  0
  -16.6000   -4.9940    9.0930 C   0  0  0  0  0  0  0  0  0  0  0  0
  -16.9390   -5.4140    7.9730 O   0  0  0  0  0  0  0  0  0  0  0  0
  -15.0180   -3.1420    9.0230 C   0  0  0  0  0  0  0  0  0  0  0  0
  -14.9520   -1.7130    8.5570 C   0  0  0  0  0  0  0  0  0  0  0  0
  -14.3110   -1.5510    7.3640 C   0  0  0  0  0  0  0  0  0  0  0  0
  -14.2070   -0.3070    6.7970 N   0  0  0  0  0  0  0  0  0  0  0  0
  -14.6190    0.8110    7.4530 C   0  0  0  0  0  0  0  0  0  0  0  0
  -15.2220    0.6490    8.7190 C   0  0  0  0  0  0  0  0  0  0  0  0
  -15.4260   -0.6420    9.3200 C   0  0  0  0  0  0  0  0  0  0  0  0
  -16.2980   -5.8480   10.1390 N   0  0  0  0  0  0  0  0  0  0  0  0
  -16.0740   -7.2920    9.7700 C   0  0  2  0  0  0  0  0  0  0  0  0
  -16.8810   -8.2690   10.5220 C   0  0  0  0  0  0  0  0  0  0  0  0
  -16.7440   -9.4600   10.1170 O   0  0  0  0  0  0  0  0  0  0  0  0
  -14.5810   -7.6080    9.8930 C   0  0  0  0  0  0  0  0  0  0  0  0
  -13.7080   -6.7440    9.0790 C   0  0  0  0  0  0  0  0  0  0  0  0
  -13.7260   -6.7640    7.7030 N   0  0  0  0  0  0  0  0  0  0  0  0
  -12.7970   -5.7950    9.4310 C   0  0  0  0  0  0  0  0  0  0  0  0
  -12.8720   -5.8610    7.2380 C   0  0  0  0  0  0  0  0  0  0  0  0
  -12.2620   -5.2860    8.2730 N   0  0  0  0  0  0  0  0  0  0  0  0
  -17.6420   -7.9470   11.5630 N   0  0  0  0  0  0  0  0  0  0  0  0
  -18.3630   -8.9680   12.2470 C   0  0  2  0  0  0  0  0  0  0  0  0
  -19.7800   -9.0250   11.8670 C   0  0  0  0  0  0  0  0  0  0  0  0
  -20.4830   -7.9500   11.8910 O   0  0  0  0  0  0  0  0  0  0  0  0
  -18.3240   -8.7020   13.7930 C   0  0  0  0  0  0  0  0  0  0  0  0
  -16.9990   -8.9510   14.4770 C   0  0  0  0  0  0  0  0  0  0  0  0
  -16.5790  -10.4110   14.3250 C   0  0  0  0  0  0  0  0  0  0  0  0
  -17.6660  -11.3980   14.6880 C   0  0  0  0  0  0  0  0  0  0  0  0
  -20.3540  -10.1690   11.5480 N   0  0  0  0  0  0  0  0  0  0  0  0
  -21.7890  -10.3280   11.3730 C   0  0  2  0  0  0  0  0  0  0  0  0
  -22.1850  -11.6930   11.8760 C   0  0  0  0  0  0  0  0  0  0  0  0
  -22.4810  -12.5720   11.0620 O   0  0  0  0  0  0  0  0  0  0  0  0
  -22.2130  -10.1200    9.8940 C   0  0  0  0  0  0  0  0  0  0  0  0
  -23.7300  -10.2120    9.6740 C   0  0  0  0  0  0  0  0  0  0  0  0
  -24.4410  -10.0140   10.6250 O   0  5  0  0  0  0  0  0  0  0  0  0
  -24.0600  -10.5210    8.5250 O   0  0  0  0  0  0  0  0  0  0  0  0
  -22.2150  -11.8700   13.1800 N   0  0  0  0  0  0  0  0  0  0  0  0
  -22.4040  -13.1560   13.7890 C   0  0  2  0  0  0  0  0  0  0  0  0
  -23.7010  -13.7410   13.4270 C   0  0  0  0  0  0  0  0  0  0  0  0
  -24.7450  -13.0460   13.4240 O   0  5  0  0  0  0  0  0  0  0  0  0
  -22.2610  -12.9940   15.3270 C   0  0  0  0  0  0  0  0  0  0  0  0
  -21.0280  -12.3990   15.7120 O   0  0  0  0  0  0  0  0  0  0  0  0
  -23.6340  -15.0050   13.1190 O   0  0  0  0  0  0  0  0  0  0  0  0
  -13.6272   10.3242   19.3981 H   0  0  0  0  0  0  0  0  0  0  0  0
  -13.7793    9.0543   20.4342 H   0  0  0  0  0  0  0  0  0  0  0  0
  -14.8896    9.2798   19.2401 H   0  0  0  0  0  0  0  0  0  0  0  0
  -13.2676    8.8638   17.5395 H   0  0  0  0  0  0  0  0  0  0  0  0
  -11.2893    7.7203   19.3866 H   0  0  0  0  0  0  0  0  0  0  0  0
  -11.5032    9.4883   19.6208 H   0  0  0  0  0  0  0  0  0  0  0  0
  -10.8540    9.9746   17.4059 H   0  0  0  0  0  0  0  0  0  0  0  0
  -11.0690    8.2719   16.8756 H   0  0  0  0  0  0  0  0  0  0  0  0
   -8.7594    8.3595   17.1007 H   0  0  0  0  0  0  0  0  0  0  0  0
   -9.2354    7.7889   18.7361 H   0  0  0  0  0  0  0  0  0  0  0  0
   -9.0483   10.0879   19.6068 H   0  0  0  0  0  0  0  0  0  0  0  0
   -8.6096   10.6823   17.9694 H   0  0  0  0  0  0  0  0  0  0  0  0
   -6.6801   10.3877   19.3647 H   0  0  0  0  0  0  0  0  0  0  0  0
   -6.6166    9.3386   18.0980 H   0  0  0  0  0  0  0  0  0  0  0  0
   -7.0186    8.7939   19.5984 H   0  0  0  0  0  0  0  0  0  0  0  0
  -13.7758    6.9370   16.6828 H   0  0  0  0  0  0  0  0  0  0  0  0
  -14.6939    4.6466   18.2714 H   0  0  0  0  0  0  0  0  0  0  0  0
  -13.8147    4.9385   15.3541 H   0  0  0  0  0  0  0  0  0  0  0  0
  -15.4794    5.2145   15.9698 H   0  0  0  0  0  0  0  0  0  0  0  0
  -15.5906    2.8789   16.7203 H   0  0  0  0  0  0  0  0  0  0  0  0
  -13.9243    2.6021   16.1091 H   0  0  0  0  0  0  0  0  0  0  0  0
  -13.3741    2.9547   19.0286 H   0  0  0  0  0  0  0  0  0  0  0  0
  -10.4777    3.3219   18.7670 H   0  0  0  0  0  0  0  0  0  0  0  0
  -10.3044    1.1694   19.9967 H   0  0  0  0  0  0  0  0  0  0  0  0
  -12.2968    0.0480   20.4476 H   0  0  0  0  0  0  0  0  0  0  0  0
  -11.6018    1.7864   22.0341 H   0  0  0  0  0  0  0  0  0  0  0  0
  -12.5754    2.9427   21.0638 H   0  0  0  0  0  0  0  0  0  0  0  0
  -10.8174    3.2259   21.2999 H   0  0  0  0  0  0  0  0  0  0  0  0
   -9.0732    1.4865   17.9546 H   0  0  0  0  0  0  0  0  0  0  0  0
   -9.7358    0.6874   15.2338 H   0  0  0  0  0  0  0  0  0  0  0  0
   -7.7044   -0.7145   15.3001 H   0  0  0  0  0  0  0  0  0  0  0  0
   -7.5802   -0.4525   17.0728 H   0  0  0  0  0  0  0  0  0  0  0  0
   -7.3924    0.9328   15.9447 H   0  0  0  0  0  0  0  0  0  0  0  0
  -10.0673   -0.9776   18.4090 H   0  0  0  0  0  0  0  0  0  0  0  0
  -10.6473   -3.5264   17.1881 H   0  0  0  0  0  0  0  0  0  0  0  0
  -11.6089   -4.1473   19.3975 H   0  0  0  0  0  0  0  0  0  0  0  0
  -11.5108   -2.4312   19.9191 H   0  0  0  0  0  0  0  0  0  0  0  0
  -10.0077   -3.3525   19.5744 H   0  0  0  0  0  0  0  0  0  0  0  0
  -12.6582   -0.7448   18.2497 H   0  0  0  0  0  0  0  0  0  0  0  0
  -15.1463   -2.0908   17.6603 H   0  0  0  0  0  0  0  0  0  0  0  0
  -16.1116    0.2578   17.7590 H   0  0  0  0  0  0  0  0  0  0  0  0
  -14.4461    0.9304   17.7432 H   0  0  0  0  0  0  0  0  0  0  0  0
  -15.0035   -0.0554   19.1376 H   0  0  0  0  0  0  0  0  0  0  0  0
  -13.0117    0.0371   15.7654 H   0  0  0  0  0  0  0  0  0  0  0  0
  -14.6786    0.2461   13.4882 H   0  0  0  0  0  0  0  0  0  0  0  0
  -11.6978    0.0964   13.7249 H   0  0  0  0  0  0  0  0  0  0  0  0
  -12.7514    1.5492   13.8015 H   0  0  0  0  0  0  0  0  0  0  0  0
  -11.6799   -1.2036   11.4493 H   0  0  0  0  0  0  0  0  0  0  0  0
  -11.7883    1.3867    8.0677 H   0  0  0  0  0  0  0  0  0  0  0  0
  -12.6199    3.2041    9.5195 H   0  0  0  0  0  0  0  0  0  0  0  0
  -13.0799    2.8516   11.9081 H   0  0  0  0  0  0  0  0  0  0  0  0
  -12.2334   -2.2654   14.3506 H   0  0  0  0  0  0  0  0  0  0  0  0
  -12.5596   -3.8637   11.9444 H   0  0  0  0  0  0  0  0  0  0  0  0
  -11.9706   -4.6194   14.8851 H   0  0  0  0  0  0  0  0  0  0  0  0
  -10.7625   -4.2806   13.5996 H   0  0  0  0  0  0  0  0  0  0  0  0
  -13.2288   -6.6984   14.8697 H   0  0  0  0  0  0  0  0  0  0  0  0
  -10.2108   -5.9790   11.8844 H   0  0  0  0  0  0  0  0  0  0  0  0
  -13.3312   -9.1100   14.1931 H   0  0  0  0  0  0  0  0  0  0  0  0
  -10.2919   -8.3898   11.2677 H   0  0  0  0  0  0  0  0  0  0  0  0
  -11.8309   -9.9132   12.3756 H   0  0  0  0  0  0  0  0  0  0  0  0
  -14.4149   -3.8999   15.0561 H   0  0  0  0  0  0  0  0  0  0  0  0
  -15.9309   -6.1982   14.3251 H   0  0  0  0  0  0  0  0  0  0  0  0
  -17.5917   -5.4431   16.0943 H   0  0  0  0  0  0  0  0  0  0  0  0
  -16.5987   -3.9622   16.3127 H   0  0  0  0  0  0  0  0  0  0  0  0
  -14.6040   -5.6258   16.6074 H   0  0  0  0  0  0  0  0  0  0  0  0
  -15.8810   -6.8587   16.8826 H   0  0  0  0  0  0  0  0  0  0  0  0
  -16.6186   -2.7069   14.0267 H   0  0  0  0  0  0  0  0  0  0  0  0
  -19.2743   -3.0954   12.9893 H   0  0  0  0  0  0  0  0  0  0  0  0
  -17.1883   -0.8470   12.6314 H   0  0  0  0  0  0  0  0  0  0  0  0
  -18.4540   -0.9431   13.9023 H   0  0  0  0  0  0  0  0  0  0  0  0
  -20.1915   -0.8212   12.1254 H   0  0  0  0  0  0  0  0  0  0  0  0
  -18.8888   -0.6144   10.9060 H   0  0  0  0  0  0  0  0  0  0  0  0
  -19.5332    1.2424   13.2556 H   0  0  0  0  0  0  0  0  0  0  0  0
  -19.8249    1.5690   11.5135 H   0  0  0  0  0  0  0  0  0  0  0  0
  -17.2474    1.7000   12.9706 H   0  0  0  0  0  0  0  0  0  0  0  0
  -17.8352    2.8498    9.1179 H   0  0  0  0  0  0  0  0  0  0  0  0
  -19.0726    1.8857    9.9675 H   0  0  0  0  0  0  0  0  0  0  0  0
  -15.6570    3.0319   11.9260 H   0  0  0  0  0  0  0  0  0  0  0  0
  -15.9424    3.5401   10.2399 H   0  0  0  0  0  0  0  0  0  0  0  0
  -16.0765   -2.7399   11.4131 H   0  0  0  0  0  0  0  0  0  0  0  0
  -17.1633   -2.9830    8.7054 H   0  0  0  0  0  0  0  0  0  0  0  0
  -14.6562   -3.8032    8.2218 H   0  0  0  0  0  0  0  0  0  0  0  0
  -14.3840   -3.2641    9.9135 H   0  0  0  0  0  0  0  0  0  0  0  0
  -13.8816   -2.4102    6.8616 H   0  0  0  0  0  0  0  0  0  0  0  0
  -14.4885    1.7951    7.0175 H   0  0  0  0  0  0  0  0  0  0  0  0
  -15.5439    1.5318    9.2594 H   0  0  0  0  0  0  0  0  0  0  0  0
  -15.9065   -0.7731   10.2828 H   0  0  0  0  0  0  0  0  0  0  0  0
  -16.2323   -5.5262   11.0835 H   0  0  0  0  0  0  0  0  0  0  0  0
  -16.3558   -7.4003    8.7122 H   0  0  0  0  0  0  0  0  0  0  0  0
  -14.4227   -8.6504    9.5794 H   0  0  0  0  0  0  0  0  0  0  0  0
  -14.2908   -7.4944   10.9479 H   0  0  0  0  0  0  0  0  0  0  0  0
  -12.5396   -5.4945   10.4456 H   0  0  0  0  0  0  0  0  0  0  0  0
  -12.6992   -5.6293    6.1880 H   0  0  0  0  0  0  0  0  0  0  0  0
  -11.5152   -4.5790    8.2148 H   0  0  0  0  0  0  0  0  0  0  0  0
  -17.7080   -6.9956   11.8638 H   0  0  0  0  0  0  0  0  0  0  0  0
  -17.8915   -9.9365   12.0243 H   0  0  0  0  0  0  0  0  0  0  0  0
  -19.0738   -9.3537   14.2653 H   0  0  0  0  0  0  0  0  0  0  0  0
  -18.5959   -7.6493   13.9600 H   0  0  0  0  0  0  0  0  0  0  0  0
  -17.0943   -8.7122   15.5465 H   0  0  0  0  0  0  0  0  0  0  0  0
  -16.2319   -8.3057   14.0241 H   0  0  0  0  0  0  0  0  0  0  0  0
  -15.7128  -10.5929   14.9781 H   0  0  0  0  0  0  0  0  0  0  0  0
  -16.2906  -10.5820   13.2774 H   0  0  0  0  0  0  0  0  0  0  0  0
  -17.2902  -12.4231   14.5538 H   0  0  0  0  0  0  0  0  0  0  0  0
  -18.5381  -11.2390   14.0367 H   0  0  0  0  0  0  0  0  0  0  0  0
  -17.9603  -11.2499   15.7375 H   0  0  0  0  0  0  0  0  0  0  0  0
  -19.7705  -10.9709   11.4195 H   0  0  0  0  0  0  0  0  0  0  0  0
  -22.3014   -9.5686   11.9819 H   0  0  0  0  0  0  0  0  0  0  0  0
  -21.7246  -10.8909    9.2799 H   0  0  0  0  0  0  0  0  0  0  0  0
  -21.8739   -9.1246    9.5711 H   0  0  0  0  0  0  0  0  0  0  0  0
  -22.1010  -11.0729   13.7729 H   0  0  0  0  0  0  0  0  0  0  0  0
  -21.6142  -13.8333   13.4319 H   0  0  0  0  0  0  0  0  0  0  0  0
  -22.3302  -13.9885   15.7919 H   0  0  0  0  0  0  0  0  0  0  0  0
  -23.0839  -12.3611   15.6906 H   0  0  0  0  0  0  0  0  0  0  0  0
  -20.3083  -12.9411   15.4106 H   0  0  0  0  0  0  0  0  0  0  0  0
  1  2  1  0  0  0  0
  1127  1  0  0  0  0
  1128  1  0  0  0  0
  1129  1  0  0  0  0
  2  3  1  0  0  0  0
  2  5  1  0  0  0  0
  2130  1  6  0  0  0
  3  4  2  0  0  0  0
  3 10  1  0  0  0  0
  5  6  1  0  0  0  0
  5131  1  0  0  0  0
  5132  1  0  0  0  0
  6  7  1  0  0  0  0
  6133  1  0  0  0  0
  6134  1  0  0  0  0
  7  8  1  0  0  0  0
  7135  1  0  0  0  0
  7136  1  0  0  0  0
  8  9  1  0  0  0  0
  8137  1  0  0  0  0
  8138  1  0  0  0  0
  9139  1  0  0  0  0
  9140  1  0  0  0  0
  9141  1  0  0  0  0
 10 11  1  0  0  0  0
 10142  1  0  0  0  0
 11 12  1  0  0  0  0
 11 14  1  0  0  0  0
 11143  1  1  0  0  0
 12 13  2  0  0  0  0
 12 19  1  0  0  0  0
 14 15  1  0  0  0  0
 14144  1  0  0  0  0
 14145  1  0  0  0  0
 15 16  1  0  0  0  0
 15146  1  0  0  0  0
 15147  1  0  0  0  0
 16 17  1  0  0  0  0
 16 18  2  0  0  0  0
 19 20  1  0  0  0  0
 19148  1  0  0  0  0
 20 21  1  0  0  0  0
 20 23  1  0  0  0  0
 20149  1  1  0  0  0
 21 22  2  0  0  0  0
 21 26  1  0  0  0  0
 23 24  1  0  0  0  0
 23 25  1  0  0  0  0
 23150  1  1  0  0  0
 24151  1  0  0  0  0
 25152  1  0  0  0  0
 25153  1  0  0  0  0
 25154  1  0  0  0  0
 26 27  1  0  0  0  0
 26155  1  0  0  0  0
 27 28  1  0  0  0  0
 27 30  1  0  0  0  0
 27156  1  6  0  0  0
 28 29  2  0  0  0  0
 28 31  1  0  0  0  0
 30157  1  0  0  0  0
 30158  1  0  0  0  0
 30159  1  0  0  0  0
 31 32  1  0  0  0  0
 31160  1  0  0  0  0
 32 33  1  0  0  0  0
 32 35  1  0  0  0  0
 32161  1  6  0  0  0
 33 34  2  0  0  0  0
 33 36  1  0  0  0  0
 35162  1  0  0  0  0
 35163  1  0  0  0  0
 35164  1  0  0  0  0
 36 37  1  0  0  0  0
 36165  1  0  0  0  0
 37 38  1  0  0  0  0
 37 40  1  0  0  0  0
 37166  1  1  0  0  0
 38 39  2  0  0  0  0
 38 41  1  0  0  0  0
 40167  1  0  0  0  0
 40168  1  0  0  0  0
 40169  1  0  0  0  0
 41 42  1  0  0  0  0
 41170  1  0  0  0  0
 42 43  1  0  0  0  0
 42 45  1  0  0  0  0
 42171  1  6  0  0  0
 43 44  2  0  0  0  0
 43 52  1  0  0  0  0
 45 46  1  0  0  0  0
 45172  1  0  0  0  0
 45173  1  0  0  0  0
 46 47  2  0  0  0  0
 46 51  1  0  0  0  0
 47 48  1  0  0  0  0
 47174  1  0  0  0  0
 48 49  2  0  0  0  0
 49 50  1  0  0  0  0
 49175  1  0  0  0  0
 50 51  2  0  0  0  0
 50176  1  0  0  0  0
 51177  1  0  0  0  0
 52 53  1  0  0  0  0
 52178  1  0  0  0  0
 53 54  1  0  0  0  0
 53 56  1  0  0  0  0
 53179  1  6  0  0  0
 54 55  2  0  0  0  0
 54 63  1  0  0  0  0
 56 57  1  0  0  0  0
 56180  1  0  0  0  0
 56181  1  0  0  0  0
 57 58  2  0  0  0  0
 57 59  1  0  0  0  0
 58 60  1  0  0  0  0
 58182  1  0  0  0  0
 59 61  2  0  0  0  0
 59183  1  0  0  0  0
 60 62  2  0  0  0  0
 60184  1  0  0  0  0
 61 62  1  0  0  0  0
 61185  1  0  0  0  0
 62186  1  0  0  0  0
 63 64  1  0  0  0  0
 63187  1  0  0  0  0
 64 65  1  0  0  0  0
 64 67  1  0  0  0  0
 64188  1  6  0  0  0
 65 66  2  0  0  0  0
 65 72  1  0  0  0  0
 67 68  1  0  0  0  0
 67189  1  0  0  0  0
 67190  1  0  0  0  0
 68 69  1  0  0  0  0
 68191  1  0  0  0  0
 68192  1  0  0  0  0
 69 70  1  0  0  0  0
 69 71  2  0  0  0  0
 72 73  1  0  0  0  0
 72193  1  0  0  0  0
 73 74  1  0  0  0  0
 73 76  1  0  0  0  0
 73194  1  1  0  0  0
 74 75  2  0  0  0  0
 74 83  1  0  0  0  0
 76 77  1  0  0  0  0
 76195  1  0  0  0  0
 76196  1  0  0  0  0
 77 78  1  0  0  0  0
 77197  1  0  0  0  0
 77198  1  0  0  0  0
 78 79  1  0  0  0  0
 78199  1  0  0  0  0
 78200  1  0  0  0  0
 79 80  1  0  0  0  0
 79201  1  0  0  0  0
 80 81  1  0  0  0  0
 80 82  1  0  0  0  0
 81202  1  0  0  0  0
 81203  1  0  0  0  0
 82204  1  0  0  0  0
 82205  1  0  0  0  0
 83 84  1  0  0  0  0
 83206  1  0  0  0  0
 84 85  1  0  0  0  0
 84 87  1  0  0  0  0
 84207  1  6  0  0  0
 85 86  2  0  0  0  0
 85 94  1  0  0  0  0
 87 88  1  0  0  0  0
 87208  1  0  0  0  0
 87209  1  0  0  0  0
 88 89  2  0  0  0  0
 88 93  1  0  0  0  0
 89 90  1  0  0  0  0
 89210  1  0  0  0  0
 90 91  2  0  0  0  0
 91 92  1  0  0  0  0
 91211  1  0  0  0  0
 92 93  2  0  0  0  0
 92212  1  0  0  0  0
 93213  1  0  0  0  0
 94 95  1  0  0  0  0
 94214  1  0  0  0  0
 95 96  1  0  0  0  0
 95 98  1  0  0  0  0
 95215  1  6  0  0  0
 96 97  2  0  0  0  0
 96104  1  0  0  0  0
 98 99  1  0  0  0  0
 98216  1  0  0  0  0
 98217  1  0  0  0  0
 99100  1  0  0  0  0
 99101  2  0  0  0  0
100102  2  0  0  0  0
101103  1  0  0  0  0
101218  1  0  0  0  0
102103  1  0  0  0  0
102219  1  0  0  0  0
103220  1  0  0  0  0
104105  1  0  0  0  0
104221  1  0  0  0  0
105106  1  0  0  0  0
105108  1  0  0  0  0
105222  1  6  0  0  0
106107  2  0  0  0  0
106112  1  0  0  0  0
108109  1  0  0  0  0
108223  1  0  0  0  0
108224  1  0  0  0  0
109110  1  0  0  0  0
109225  1  0  0  0  0
109226  1  0  0  0  0
110111  1  0  0  0  0
110227  1  0  0  0  0
110228  1  0  0  0  0
111229  1  0  0  0  0
111230  1  0  0  0  0
111231  1  0  0  0  0
112113  1  0  0  0  0
112232  1  0  0  0  0
113114  1  0  0  0  0
113116  1  0  0  0  0
113233  1  1  0  0  0
114115  2  0  0  0  0
114120  1  0  0  0  0
116117  1  0  0  0  0
116234  1  0  0  0  0
116235  1  0  0  0  0
117118  1  0  0  0  0
117119  2  0  0  0  0
120121  1  0  0  0  0
120236  1  0  0  0  0
121122  1  0  0  0  0
121124  1  0  0  0  0
121237  1  6  0  0  0
122123  1  0  0  0  0
122126  2  0  0  0  0
124125  1  0  0  0  0
124238  1  0  0  0  0
124239  1  0  0  0  0
125240  1  0  0  0  0
M  CHG  6   1   1   9   1  17  -1  70  -1 118  -1 123  -1
M  END
