4o4k_ligand
 OpenBabel08222323353D

 24 25  0  0  1  0  0  0  0  0999 V2000
   10.0620  462.5100   31.7660 O   0  0  0  0  0  0  0  0  0  0  0  0
   10.0480  463.4520   30.9940 C   0  0  0  0  0  0  0  0  0  0  0  0
    9.6260  464.6410   31.4550 N   0  0  0  0  0  0  0  0  0  0  0  0
    9.6660  465.5930   30.5330 C   0  0  2  0  0  3  0  0  0  0  0  0
    9.2860  466.8490   30.7440 N   0  0  0  0  0  0  0  0  0  0  0  0
   10.2440  464.9540   29.1330 S   0  0  0  0  0  0  0  0  0  0  0  0
   10.4670  463.4280   29.7100 C   0  0  0  0  0  0  0  0  0  0  0  0
   10.9290  462.4690   28.8790 C   0  0  0  0  0  0  0  0  0  0  0  0
   11.0840  461.0920   29.1360 C   0  0  0  0  0  0  0  0  0  0  0  0
   11.5970  460.3380   28.0830 C   0  0  0  0  0  0  0  0  0  0  0  0
   11.7950  458.9660   28.2000 C   0  0  0  0  0  0  0  0  0  0  0  0
   11.4780  458.3230   29.3900 C   0  0  0  0  0  0  0  0  0  0  0  0
   11.6690  456.9860   29.5130 O   0  0  0  0  0  0  0  0  0  0  0  0
   10.9660  459.0490   30.4540 C   0  0  0  0  0  0  0  0  0  0  0  0
   10.7780  460.4140   30.3130 C   0  0  0  0  0  0  0  0  0  0  0  0
    9.3149  464.7920   32.3933 H   0  0  0  0  0  0  0  0  0  0  0  0
    9.3434  467.5394   29.9818 H   0  0  0  0  0  0  0  0  0  0  0  0
    8.9341  467.1320   31.6697 H   0  0  0  0  0  0  0  0  0  0  0  0
   11.2187  462.8021   27.8835 H   0  0  0  0  0  0  0  0  0  0  0  0
   11.8477  460.8317   27.1511 H   0  0  0  0  0  0  0  0  0  0  0  0
   12.1950  458.4009   27.3659 H   0  0  0  0  0  0  0  0  0  0  0  0
   11.4038  456.7079   30.3819 H   0  0  0  0  0  0  0  0  0  0  0  0
   10.7157  458.5543   31.3855 H   0  0  0  0  0  0  0  0  0  0  0  0
   10.3779  460.9751   31.1498 H   0  0  0  0  0  0  0  0  0  0  0  0
  1  2  2  0  0  0  0
  2  3  1  0  0  0  0
  2  7  1  0  0  0  0
  3  4  1  0  0  0  0
  3 16  1  0  0  0  0
  4  5  1  6  0  0  0
  4  6  1  0  0  0  0
  5 17  1  0  0  0  0
  5 18  1  0  0  0  0
  6  7  1  0  0  0  0
  7  8  2  0  0  0  0
  8  9  1  0  0  0  0
  8 19  1  0  0  0  0
  9 10  2  0  0  0  0
  9 15  1  0  0  0  0
 10 11  1  0  0  0  0
 10 20  1  0  0  0  0
 11 12  2  0  0  0  0
 11 21  1  0  0  0  0
 12 13  1  0  0  0  0
 12 14  1  0  0  0  0
 13 22  1  0  0  0  0
 14 15  2  0  0  0  0
 14 23  1  0  0  0  0
 15 24  1  0  0  0  0
M  END
