4o4r_ligand
 OpenBabel08222323353D

 50 52  0  0  0  0  0  0  0  0999 V2000
    7.0810   12.1540   41.7140 O   0  0  0  0  0  1  0  0  0  0  0  0
    8.0250   13.2000   40.9240 P   0  0  0  0  0  0  0  0  0  0  0  0
    7.1080   14.5310   40.8270 O   0  0  0  0  0  1  0  0  0  0  0  0
    8.4760   12.7440   39.5800 O   0  0  0  0  0  0  0  0  0  0  0  0
    9.2210   13.5380   41.9490 O   0  0  0  0  0  0  0  0  0  0  0  0
   10.4940   12.8730   41.8890 C   0  0  0  0  0  0  0  0  0  0  0  0
   11.4330   13.6830   42.5370 C   0  0  0  0  0  0  0  0  0  0  0  0
   11.6940   14.9500   42.0180 C   0  0  0  0  0  0  0  0  0  0  0  0
   11.0340   15.3970   40.8830 C   0  0  0  0  0  0  0  0  0  0  0  0
   10.1630   16.2640   40.9660 O   0  0  0  0  0  0  0  0  0  0  0  0
   12.6160   15.7610   42.6640 C   0  0  0  0  0  0  0  0  0  0  0  0
   12.8710   16.9960   42.1480 O   0  0  0  0  0  0  0  0  0  0  0  0
   13.2810   15.3340   43.8100 C   0  0  0  0  0  0  0  0  0  0  0  0
   14.2070   16.1420   44.4650 C   0  0  0  0  0  0  0  0  0  0  0  0
   13.0120   14.1060   44.2930 N   0  0  0  0  0  0  0  0  0  0  0  0
   12.1340   13.2830   43.6830 C   0  0  0  0  0  0  0  0  0  0  0  0
   11.8420   12.0890   44.1930 N   0  0  0  0  0  0  0  0  0  0  0  0
   12.6720   11.3780   44.7200 N   0  0  0  0  0  0  0  0  0  0  0  0
   12.1550   10.2890   45.2860 C   0  0  0  0  0  0  0  0  0  0  0  0
   12.8220    9.6430   46.3210 C   0  0  0  0  0  0  0  0  0  0  0  0
   12.2570    8.5000   46.9190 C   0  0  0  0  0  0  0  0  0  0  0  0
   12.9080    7.8250   47.9620 C   0  0  0  0  0  0  0  0  0  0  0  0
   14.5220    8.3480   48.5720 S   0  0  0  0  0  0  0  0  0  0  0  0
   15.4980    8.3510   47.4160 O   0  0  0  0  0  1  0  0  0  0  0  0
   15.0470    7.3620   49.6010 O   0  0  0  0  0  1  0  0  0  0  0  0
   14.4640    9.7660   49.1510 O   0  0  0  0  0  1  0  0  0  0  0  0
   12.3070    6.7030   48.5410 C   0  0  0  0  0  0  0  0  0  0  0  0
   11.0600    6.2290   48.1050 C   0  0  0  0  0  0  0  0  0  0  0  0
   10.4690    5.1450   48.6530 N   0  0  0  0  0  0  0  0  0  0  0  0
    8.9870    4.7100   48.2640 O   0  0  0  0  0  0  0  0  0  0  0  0
   11.1460    4.3570   49.6480 O   0  0  0  0  0  0  0  0  0  0  0  0
   10.4280    6.9030   47.0730 C   0  0  0  0  0  0  0  0  0  0  0  0
   11.0080    8.0270   46.4800 C   0  0  0  0  0  0  0  0  0  0  0  0
   10.3310    8.6890   45.4470 C   0  0  0  0  0  0  0  0  0  0  0  0
    8.7190    8.1300   44.8320 S   0  0  0  0  0  0  0  0  0  0  0  0
    8.2620    8.9830   43.6510 O   0  0  0  0  0  1  0  0  0  0  0  0
    7.7220    8.2130   45.9760 O   0  0  0  0  0  1  0  0  0  0  0  0
    8.7900    6.6800   44.3540 O   0  0  0  0  0  1  0  0  0  0  0  0
   10.9070    9.8120   44.8670 C   0  0  0  0  0  0  0  0  0  0  0  0
   10.7891   12.7246   40.8398 H   0  0  0  0  0  0  0  0  0  0  0  0
   10.4304   11.8976   42.3935 H   0  0  0  0  0  0  0  0  0  0  0  0
   11.2879   14.9780   39.9104 H   0  0  0  0  0  0  0  0  0  0  0  0
   12.0684   17.5041   42.1342 H   0  0  0  0  0  0  0  0  0  0  0  0
   14.6062   15.6074   45.3396 H   0  0  0  0  0  0  0  0  0  0  0  0
   13.7159   17.0694   44.7949 H   0  0  0  0  0  0  0  0  0  0  0  0
   15.0303   16.3873   43.7780 H   0  0  0  0  0  0  0  0  0  0  0  0
   13.7775   10.0194   46.6678 H   0  0  0  0  0  0  0  0  0  0  0  0
   12.8167    6.1866   49.3464 H   0  0  0  0  0  0  0  0  0  0  0  0
    9.4655    6.5517   46.7190 H   0  0  0  0  0  0  0  0  0  0  0  0
   10.3797   10.3296   44.0739 H   0  0  0  0  0  0  0  0  0  0  0  0
  1  2  1  0  0  0  0
  2  3  1  0  0  0  0
  2  4  2  0  0  0  0
  2  5  1  0  0  0  0
  5  6  1  0  0  0  0
  6  7  1  0  0  0  0
  6 40  1  0  0  0  0
  6 41  1  0  0  0  0
  7  8  2  0  0  0  0
  7 16  1  0  0  0  0
  8  9  1  0  0  0  0
  8 11  1  0  0  0  0
  9 10  2  0  0  0  0
  9 42  1  0  0  0  0
 11 12  1  0  0  0  0
 11 13  2  0  0  0  0
 12 43  1  0  0  0  0
 13 14  1  0  0  0  0
 13 15  1  0  0  0  0
 14 44  1  0  0  0  0
 14 45  1  0  0  0  0
 14 46  1  0  0  0  0
 15 16  2  0  0  0  0
 16 17  1  0  0  0  0
 17 18  2  0  0  0  0
 18 19  1  0  0  0  0
 19 20  2  0  0  0  0
 19 39  1  0  0  0  0
 20 21  1  0  0  0  0
 20 47  1  0  0  0  0
 21 22  2  0  0  0  0
 21 33  1  0  0  0  0
 22 23  1  0  0  0  0
 22 27  1  0  0  0  0
 23 24  1  0  0  0  0
 23 25  1  0  0  0  0
 23 26  1  0  0  0  0
 27 28  2  0  0  0  0
 27 48  1  0  0  0  0
 28 29  1  0  0  0  0
 28 32  1  0  0  0  0
 29 30  2  0  0  0  0
 29 31  2  0  0  0  0
 32 33  2  0  0  0  0
 32 49  1  0  0  0  0
 33 34  1  0  0  0  0
 34 35  1  0  0  0  0
 34 39  2  0  0  0  0
 35 36  1  0  0  0  0
 35 37  1  0  0  0  0
 35 38  1  0  0  0  0
 39 50  1  0  0  0  0
M  END
