4o4y_ligand
 OpenBabel08222323353D

 99100  0  0  1  0  0  0  0  0999 V2000
    6.5300   29.1770  -57.5040 N   0  3  0  0  0  0  0  0  0  0  0  0
    6.5130   28.2790  -56.3480 C   0  0  2  0  0  0  0  0  0  0  0  0
    5.1440   28.2740  -55.6230 C   0  0  0  0  0  0  0  0  0  0  0  0
    4.8490   29.1920  -54.8660 O   0  0  0  0  0  0  0  0  0  0  0  0
    7.6470   28.8380  -55.4580 C   0  0  0  0  0  0  0  0  0  0  0  0
    8.0700   30.1780  -56.0930 C   0  0  0  0  0  0  0  0  0  0  0  0
    7.0700   30.5010  -57.1570 C   0  0  0  0  0  0  0  0  0  0  0  0
    4.3190   27.2590  -55.8750 N   0  0  0  0  0  0  0  0  0  0  0  0
    2.9140   27.2890  -55.4570 C   0  0  2  0  0  0  0  0  0  0  0  0
    2.7880   27.1660  -53.9510 C   0  0  0  0  0  0  0  0  0  0  0  0
    3.4760   26.3500  -53.3420 O   0  0  0  0  0  0  0  0  0  0  0  0
    2.1290   26.1720  -56.1170 C   0  0  0  0  0  0  0  0  0  0  0  0
    1.8780   27.9420  -53.3390 N   0  0  0  0  0  0  0  0  0  0  0  0
    1.7400   27.8740  -51.8860 C   0  0  2  0  0  0  0  0  0  0  0  0
    1.4330   26.4660  -51.3740 C   0  0  0  0  0  0  0  0  0  0  0  0
    0.7150   25.7030  -52.0370 O   0  0  0  0  0  0  0  0  0  0  0  0
    0.5600   28.8040  -51.5760 C   0  0  0  0  0  0  0  0  0  0  0  0
    0.2790   29.5630  -52.8180 C   0  0  0  0  0  0  0  0  0  0  0  0
    1.1130   29.0520  -53.9390 C   0  0  0  0  0  0  0  0  0  0  0  0
    1.9980   26.1360  -50.2200 N   0  0  0  0  0  0  0  0  0  0  0  0
    1.7060   24.8670  -49.5470 C   0  0  2  0  0  0  0  0  0  0  0  0
    0.9510   25.1850  -48.2510 C   0  0  0  0  0  0  0  0  0  0  0  0
    1.4820   25.8140  -47.3270 O   0  0  0  0  0  0  0  0  0  0  0  0
    2.9820   24.0710  -49.2780 C   0  0  0  0  0  0  0  0  0  0  0  0
    2.7090   22.7970  -48.4710 C   0  0  0  0  0  0  0  0  0  0  0  0
    3.3200   21.5580  -49.0510 C   0  0  0  0  0  0  0  0  0  0  0  0
    4.2150   21.6770  -49.8860 O   0  5  0  0  0  0  0  0  0  0  0  0
    2.9430   20.4540  -48.6400 O   0  0  0  0  0  0  0  0  0  0  0  0
   -0.3210   24.7930  -48.2220 N   0  0  0  0  0  0  0  0  0  0  0  0
   -1.1830   25.0590  -47.0660 C   0  0  2  0  0  0  0  0  0  0  0  0
   -1.6740   23.7560  -46.4370 C   0  0  0  0  0  0  0  0  0  0  0  0
   -2.0130   22.8270  -47.1580 O   0  0  0  0  0  0  0  0  0  0  0  0
   -2.3440   25.9420  -47.5250 C   0  0  0  0  0  0  0  0  0  0  0  0
   -1.8180   27.2790  -48.0880 C   0  0  0  0  0  0  0  0  0  0  0  0
   -2.6940   27.7990  -49.2340 C   0  0  0  0  0  0  0  0  0  0  0  0
   -1.6650   28.2990  -46.9470 C   0  0  0  0  0  0  0  0  0  0  0  0
   -1.7760   23.7250  -45.1030 N   0  0  0  0  0  0  0  0  0  0  0  0
   -2.0630   22.5000  -44.3790 C   0  0  2  0  0  0  0  0  0  0  0  0
   -3.3540   22.5720  -43.5520 C   0  0  0  0  0  0  0  0  0  0  0  0
   -3.5030   21.8750  -42.5790 O   0  0  0  0  0  0  0  0  0  0  0  0
   -0.8650   22.1170  -43.4820 C   0  0  0  0  0  0  0  0  0  0  0  0
    0.0240   20.9550  -43.9410 C   0  0  0  0  0  0  0  0  0  0  0  0
    0.6850   21.2830  -45.2030 C   0  0  0  0  0  0  0  0  0  0  0  0
    1.0820   20.6460  -42.8580 C   0  0  0  0  0  0  0  0  0  0  0  0
   -4.2850   23.4180  -43.9480 N   0  0  0  0  0  0  0  0  0  0  0  0
   -5.5660   23.5080  -43.2040 C   0  0  0  0  0  0  0  0  0  0  0  0
   -6.6770   22.7800  -43.9090 C   0  0  0  0  0  0  0  0  0  0  0  0
   -6.4510   22.1810  -44.9650 O   0  5  0  0  0  0  0  0  0  0  0  0
   -7.8200   22.7800  -43.4580 O   0  0  0  0  0  0  0  0  0  0  0  0
    5.5881   29.2877  -57.8455 H   0  0  0  0  0  0  0  0  0  0  0  0
    7.1034   28.7694  -58.2259 H   0  0  0  0  0  0  0  0  0  0  0  0
    6.7451   27.2503  -56.6608 H   0  0  0  0  0  0  0  0  0  0  0  0
    8.4967   28.1397  -55.4393 H   0  0  0  0  0  0  0  0  0  0  0  0
    7.2827   28.9999  -54.4328 H   0  0  0  0  0  0  0  0  0  0  0  0
    9.0731   30.0852  -56.5348 H   0  0  0  0  0  0  0  0  0  0  0  0
    8.0772   30.9705  -55.3302 H   0  0  0  0  0  0  0  0  0  0  0  0
    6.2806   31.1631  -56.7718 H   0  0  0  0  0  0  0  0  0  0  0  0
    7.5529   30.9728  -58.0255 H   0  0  0  0  0  0  0  0  0  0  0  0
    4.6664   26.4571  -56.3611 H   0  0  0  0  0  0  0  0  0  0  0  0
    2.4828   28.2522  -55.7672 H   0  0  0  0  0  0  0  0  0  0  0  0
    1.0804   26.2165  -55.7876 H   0  0  0  0  0  0  0  0  0  0  0  0
    2.5619   25.2017  -55.8322 H   0  0  0  0  0  0  0  0  0  0  0  0
    2.1752   26.2875  -57.2099 H   0  0  0  0  0  0  0  0  0  0  0  0
    2.6594   28.2369  -51.4034 H   0  0  0  0  0  0  0  0  0  0  0  0
    0.8249   29.4943  -50.7615 H   0  0  0  0  0  0  0  0  0  0  0  0
   -0.3215   28.2140  -51.2845 H   0  0  0  0  0  0  0  0  0  0  0  0
   -0.4370   30.3796  -52.8985 H   0  0  0  0  0  0  0  0  0  0  0  0
    1.1503   29.4137  -54.9655 H   0  0  0  0  0  0  0  0  0  0  0  0
    2.6427   26.7723  -49.7964 H   0  0  0  0  0  0  0  0  0  0  0  0
    1.0563   24.2616  -50.1961 H   0  0  0  0  0  0  0  0  0  0  0  0
    3.6826   24.7044  -48.7141 H   0  0  0  0  0  0  0  0  0  0  0  0
    3.4344   23.7906  -50.2406 H   0  0  0  0  0  0  0  0  0  0  0  0
    1.6202   22.6508  -48.4155 H   0  0  0  0  0  0  0  0  0  0  0  0
    3.1122   22.9380  -47.4573 H   0  0  0  0  0  0  0  0  0  0  0  0
   -0.6983   24.3046  -49.0088 H   0  0  0  0  0  0  0  0  0  0  0  0
   -0.6024   25.6068  -46.3091 H   0  0  0  0  0  0  0  0  0  0  0  0
   -3.0046   26.1448  -46.6692 H   0  0  0  0  0  0  0  0  0  0  0  0
   -2.9099   25.4171  -48.3087 H   0  0  0  0  0  0  0  0  0  0  0  0
   -0.8164   27.0954  -48.5041 H   0  0  0  0  0  0  0  0  0  0  0  0
   -2.2854   28.7504  -49.6052 H   0  0  0  0  0  0  0  0  0  0  0  0
   -3.7193   27.9580  -48.8687 H   0  0  0  0  0  0  0  0  0  0  0  0
   -2.7057   27.0617  -50.0502 H   0  0  0  0  0  0  0  0  0  0  0  0
   -1.0294   27.8727  -46.1569 H   0  0  0  0  0  0  0  0  0  0  0  0
   -2.6557   28.5366  -46.5322 H   0  0  0  0  0  0  0  0  0  0  0  0
   -1.2005   29.2172  -47.3358 H   0  0  0  0  0  0  0  0  0  0  0  0
   -1.6505   24.5731  -44.5883 H   0  0  0  0  0  0  0  0  0  0  0  0
   -2.1962   21.7019  -45.1242 H   0  0  0  0  0  0  0  0  0  0  0  0
   -1.2662   21.8531  -42.4924 H   0  0  0  0  0  0  0  0  0  0  0  0
   -0.2237   23.0062  -43.3924 H   0  0  0  0  0  0  0  0  0  0  0  0
   -0.6045   20.0648  -44.0907 H   0  0  0  0  0  0  0  0  0  0  0  0
    1.3173   20.4390  -45.5159 H   0  0  0  0  0  0  0  0  0  0  0  0
    1.3093   22.1785  -45.0680 H   0  0  0  0  0  0  0  0  0  0  0  0
   -0.0742   21.4782  -45.9747 H   0  0  0  0  0  0  0  0  0  0  0  0
    0.5773   20.4003  -41.9120 H   0  0  0  0  0  0  0  0  0  0  0  0
    1.7256   21.5261  -42.7124 H   0  0  0  0  0  0  0  0  0  0  0  0
    1.6962   19.7916  -43.1786 H   0  0  0  0  0  0  0  0  0  0  0  0
   -4.1282   23.9975  -44.7477 H   0  0  0  0  0  0  0  0  0  0  0  0
   -5.8440   24.5673  -43.1016 H   0  0  0  0  0  0  0  0  0  0  0  0
   -5.4291   23.0667  -42.2058 H   0  0  0  0  0  0  0  0  0  0  0  0
  1  2  1  0  0  0  0
  1  7  1  0  0  0  0
  1 50  1  0  0  0  0
  1 51  1  0  0  0  0
  2  3  1  0  0  0  0
  2  5  1  0  0  0  0
  2 52  1  6  0  0  0
  3  4  2  0  0  0  0
  3  8  1  0  0  0  0
  5  6  1  0  0  0  0
  5 53  1  0  0  0  0
  5 54  1  0  0  0  0
  6  7  1  0  0  0  0
  6 55  1  0  0  0  0
  6 56  1  0  0  0  0
  7 57  1  0  0  0  0
  7 58  1  0  0  0  0
  8  9  1  0  0  0  0
  8 59  1  0  0  0  0
  9 10  1  0  0  0  0
  9 12  1  0  0  0  0
  9 60  1  6  0  0  0
 10 11  2  0  0  0  0
 10 13  1  0  0  0  0
 12 61  1  0  0  0  0
 12 62  1  0  0  0  0
 12 63  1  0  0  0  0
 13 14  1  0  0  0  0
 13 19  1  0  0  0  0
 14 15  1  0  0  0  0
 14 17  1  0  0  0  0
 14 64  1  1  0  0  0
 15 16  2  0  0  0  0
 15 20  1  0  0  0  0
 17 18  1  0  0  0  0
 17 65  1  0  0  0  0
 17 66  1  0  0  0  0
 18 19  2  0  0  0  0
 18 67  1  0  0  0  0
 19 68  1  0  0  0  0
 20 21  1  0  0  0  0
 20 69  1  0  0  0  0
 21 22  1  0  0  0  0
 21 24  1  0  0  0  0
 21 70  1  6  0  0  0
 22 23  2  0  0  0  0
 22 29  1  0  0  0  0
 24 25  1  0  0  0  0
 24 71  1  0  0  0  0
 24 72  1  0  0  0  0
 25 26  1  0  0  0  0
 25 73  1  0  0  0  0
 25 74  1  0  0  0  0
 26 27  1  0  0  0  0
 26 28  2  0  0  0  0
 29 30  1  0  0  0  0
 29 75  1  0  0  0  0
 30 31  1  0  0  0  0
 30 33  1  0  0  0  0
 30 76  1  1  0  0  0
 31 32  2  0  0  0  0
 31 37  1  0  0  0  0
 33 34  1  0  0  0  0
 33 77  1  0  0  0  0
 33 78  1  0  0  0  0
 34 35  1  0  0  0  0
 34 36  1  0  0  0  0
 34 79  1  0  0  0  0
 35 80  1  0  0  0  0
 35 81  1  0  0  0  0
 35 82  1  0  0  0  0
 36 83  1  0  0  0  0
 36 84  1  0  0  0  0
 36 85  1  0  0  0  0
 37 38  1  0  0  0  0
 37 86  1  0  0  0  0
 38 39  1  0  0  0  0
 38 41  1  0  0  0  0
 38 87  1  6  0  0  0
 39 40  2  0  0  0  0
 39 45  1  0  0  0  0
 41 42  1  0  0  0  0
 41 88  1  0  0  0  0
 41 89  1  0  0  0  0
 42 43  1  0  0  0  0
 42 44  1  0  0  0  0
 42 90  1  0  0  0  0
 43 91  1  0  0  0  0
 43 92  1  0  0  0  0
 43 93  1  0  0  0  0
 44 94  1  0  0  0  0
 44 95  1  0  0  0  0
 44 96  1  0  0  0  0
 45 46  1  0  0  0  0
 45 97  1  0  0  0  0
 46 47  1  0  0  0  0
 46 98  1  0  0  0  0
 46 99  1  0  0  0  0
 47 48  1  0  0  0  0
 47 49  2  0  0  0  0
M  CHG  3   1   1  27  -1  48  -1
M  END
