4o55_ligand
 OpenBabel08222323353D

 58 61  0  0  1  0  0  0  0  0999 V2000
  -37.5650   32.5790  -28.0330 C   0  0  0  0  0  0  0  0  0  0  0  0
  -36.7750   31.4510  -28.3300 C   0  0  0  0  0  0  0  0  0  0  0  0
  -35.4200   31.6330  -28.6200 C   0  0  0  0  0  0  0  0  0  0  0  0
  -34.8840   32.9490  -28.6130 C   0  0  0  0  0  0  0  0  0  0  0  0
  -35.7220   34.0390  -28.3000 C   0  0  0  0  0  0  0  0  0  0  0  0
  -37.0170   33.8160  -28.0310 N   0  0  0  0  0  0  0  0  0  0  0  0
  -34.5720   30.4420  -28.9250 C   0  0  0  0  0  0  0  0  0  0  0  0
  -34.1120   29.6060  -27.8970 C   0  0  0  0  0  0  0  0  0  0  0  0
  -33.2950   28.5050  -28.1880 C   0  0  0  0  0  0  0  0  0  0  0  0
  -32.9380   28.2020  -29.5040 C   0  0  0  0  0  0  0  0  0  0  0  0
  -33.4000   29.0400  -30.5220 C   0  0  0  0  0  0  0  0  0  0  0  0
  -34.2140   30.1530  -30.2360 C   0  0  0  0  0  0  0  0  0  0  0  0
  -37.4150   30.0740  -28.3320 C   0  0  0  0  0  0  0  0  0  0  0  0
  -35.3010   35.4870  -28.2810 C   0  0  0  0  0  0  0  0  0  0  0  0
  -33.4330   33.1990  -28.9220 C   0  0  1  0  0  0  0  0  0  0  0  0
  -33.2500   33.7180  -30.3410 C   0  0  0  0  0  0  0  0  0  0  0  0
  -32.7850   34.0990  -27.9920 O   0  0  0  0  0  0  0  0  0  0  0  0
  -34.0260   33.3010  -31.2300 O   0  5  0  0  0  0  0  0  0  0  0  0
  -32.3030   34.4940  -30.5950 O   0  0  0  0  0  0  0  0  0  0  0  0
  -32.3880   33.5540  -26.7180 C   0  0  0  0  0  0  0  0  0  0  0  0
  -33.5500   33.1770  -25.8260 C   0  0  0  0  0  0  0  0  0  0  0  0
  -31.6410   34.7010  -26.0440 C   0  0  0  0  0  0  0  0  0  0  0  0
  -31.5480   32.2930  -26.8610 C   0  0  0  0  0  0  0  0  0  0  0  0
  -39.0220   32.4220  -27.7230 C   0  0  0  0  0  0  0  0  0  0  0  0
  -40.0120   32.3670  -28.6270 N   0  0  0  0  0  0  0  0  0  0  0  0
  -41.1880   32.1930  -27.9830 C   0  0  0  0  0  0  0  0  0  0  0  0
  -40.8890   32.1280  -26.6280 C   0  0  0  0  0  0  0  0  0  0  0  0
  -39.5550   32.2700  -26.5020 N   0  0  0  0  0  0  0  0  0  0  0  0
  -42.5210   32.0730  -28.4160 C   0  0  0  0  0  0  0  0  0  0  0  0
  -41.9160   31.9450  -25.6950 C   0  0  0  0  0  0  0  0  0  0  0  0
  -43.5470   31.8850  -27.4810 C   0  0  0  0  0  0  0  0  0  0  0  0
  -43.2510   31.8170  -26.1080 C   0  0  0  0  0  0  0  0  0  0  0  0
  -44.5540   31.5700  -24.8700 Cl  0  0  0  0  0  0  0  0  0  0  0  0
  -34.3904   29.8129  -26.8700 H   0  0  0  0  0  0  0  0  0  0  0  0
  -32.9347   27.8791  -27.3796 H   0  0  0  0  0  0  0  0  0  0  0  0
  -32.3197   27.3406  -29.7292 H   0  0  0  0  0  0  0  0  0  0  0  0
  -33.1271   28.8298  -31.5498 H   0  0  0  0  0  0  0  0  0  0  0  0
  -34.5630   30.7874  -31.0427 H   0  0  0  0  0  0  0  0  0  0  0  0
  -38.4815   30.1650  -28.0785 H   0  0  0  0  0  0  0  0  0  0  0  0
  -36.9146   29.4360  -27.5886 H   0  0  0  0  0  0  0  0  0  0  0  0
  -37.3126   29.6235  -29.3303 H   0  0  0  0  0  0  0  0  0  0  0  0
  -36.1603   36.1150  -28.0033 H   0  0  0  0  0  0  0  0  0  0  0  0
  -34.9419   35.7776  -29.2793 H   0  0  0  0  0  0  0  0  0  0  0  0
  -34.4938   35.6246  -27.5465 H   0  0  0  0  0  0  0  0  0  0  0  0
  -32.9188   32.2293  -28.8503 H   0  0  0  0  0  0  0  0  0  0  0  0
  -33.1677   32.7711  -24.8778 H   0  0  0  0  0  0  0  0  0  0  0  0
  -34.1663   32.4168  -26.3283 H   0  0  0  0  0  0  0  0  0  0  0  0
  -34.1610   34.0689  -25.6232 H   0  0  0  0  0  0  0  0  0  0  0  0
  -31.2933   34.3789  -25.0513 H   0  0  0  0  0  0  0  0  0  0  0  0
  -32.3150   35.5633  -25.9344 H   0  0  0  0  0  0  0  0  0  0  0  0
  -30.7761   34.9876  -26.6602 H   0  0  0  0  0  0  0  0  0  0  0  0
  -31.2733   31.9203  -25.8632 H   0  0  0  0  0  0  0  0  0  0  0  0
  -30.6354   32.5229  -27.4305 H   0  0  0  0  0  0  0  0  0  0  0  0
  -32.1281   31.5243  -27.3926 H   0  0  0  0  0  0  0  0  0  0  0  0
  -39.0315   32.2630  -25.6150 H   0  0  0  0  0  0  0  0  0  0  0  0
  -42.7543   32.1260  -29.4733 H   0  0  0  0  0  0  0  0  0  0  0  0
  -41.6769   31.9015  -24.6386 H   0  0  0  0  0  0  0  0  0  0  0  0
  -44.5733   31.7916  -27.8172 H   0  0  0  0  0  0  0  0  0  0  0  0
  1  2  2  0  0  0  0
  1  6  1  0  0  0  0
  1 24  1  0  0  0  0
  2  3  1  0  0  0  0
  2 13  1  0  0  0  0
  3  4  2  0  0  0  0
  3  7  1  0  0  0  0
  4  5  1  0  0  0  0
  4 15  1  0  0  0  0
  5  6  2  0  0  0  0
  5 14  1  0  0  0  0
  7  8  2  0  0  0  0
  7 12  1  0  0  0  0
  8  9  1  0  0  0  0
  8 34  1  0  0  0  0
  9 10  2  0  0  0  0
  9 35  1  0  0  0  0
 10 11  1  0  0  0  0
 10 36  1  0  0  0  0
 11 12  2  0  0  0  0
 11 37  1  0  0  0  0
 12 38  1  0  0  0  0
 13 39  1  0  0  0  0
 13 40  1  0  0  0  0
 13 41  1  0  0  0  0
 14 42  1  0  0  0  0
 14 43  1  0  0  0  0
 14 44  1  0  0  0  0
 15 16  1  0  0  0  0
 15 17  1  0  0  0  0
 15 45  1  1  0  0  0
 16 18  1  0  0  0  0
 16 19  2  0  0  0  0
 17 20  1  0  0  0  0
 20 21  1  0  0  0  0
 20 22  1  0  0  0  0
 20 23  1  0  0  0  0
 21 46  1  0  0  0  0
 21 47  1  0  0  0  0
 21 48  1  0  0  0  0
 22 49  1  0  0  0  0
 22 50  1  0  0  0  0
 22 51  1  0  0  0  0
 23 52  1  0  0  0  0
 23 53  1  0  0  0  0
 23 54  1  0  0  0  0
 24 25  2  0  0  0  0
 24 28  1  0  0  0  0
 25 26  1  0  0  0  0
 26 27  2  0  0  0  0
 26 29  1  0  0  0  0
 27 28  1  0  0  0  0
 27 30  1  0  0  0  0
 28 55  1  0  0  0  0
 29 31  2  0  0  0  0
 29 56  1  0  0  0  0
 30 32  2  0  0  0  0
 30 57  1  0  0  0  0
 31 32  1  0  0  0  0
 31 58  1  0  0  0  0
 32 33  1  0  0  0  0
M  CHG  1  18  -1
M  END
