4o71_ligand
 OpenBabel08222323353D

 49 52  0  0  1  0  0  0  0  0999 V2000
   27.0900  100.4270   27.5010 C   0  0  0  0  0  0  0  0  0  0  0  0
   26.4670  100.7190   28.8150 N   0  3  1  0  0  0  0  0  0  0  0  0
   25.0380  100.2950   28.8180 C   0  0  0  0  0  0  0  0  0  0  0  0
   24.3750  100.6190   30.1690 C   0  0  0  0  0  0  0  0  0  0  0  0
   25.1950  100.0420   31.3660 C   0  0  1  0  0  0  0  0  0  0  0  0
   26.6730  100.4740   31.2660 C   0  0  1  0  0  0  0  0  0  0  0  0
   27.2620  100.0830   29.9100 C   0  0  0  0  0  0  0  0  0  0  0  0
   24.4590  100.2270   32.6710 C   0  0  0  0  0  0  0  0  0  0  0  0
   23.8450   99.1140   33.2910 C   0  0  0  0  0  0  0  0  0  0  0  0
   23.9750   97.9010   32.6920 O   0  0  0  0  0  0  0  0  0  0  0  0
   23.3880   96.7680   33.1690 C   0  0  0  0  0  0  0  0  0  0  0  0
   22.6530   96.8200   34.3640 C   0  0  0  0  0  0  0  0  0  0  0  0
   22.5060   98.0540   35.0560 C   0  0  0  0  0  0  0  0  0  0  0  0
   21.8250   98.1310   36.1330 O   0  0  0  0  0  0  0  0  0  0  0  0
   23.1120   99.2150   34.5050 C   0  0  0  0  0  0  0  0  0  0  0  0
   23.0040  100.4820   35.0980 C   0  0  0  0  0  0  0  0  0  0  0  0
   22.3020  100.6520   36.2360 O   0  0  0  0  0  0  0  0  0  0  0  0
   23.6040  101.5800   34.4950 C   0  0  0  0  0  0  0  0  0  0  0  0
   24.3280  101.4780   33.3090 C   0  0  0  0  0  0  0  0  0  0  0  0
   24.8560  102.6010   32.7810 O   0  0  0  0  0  0  0  0  0  0  0  0
   23.6090   95.6000   32.3970 C   0  0  0  0  0  0  0  0  0  0  0  0
   23.5110   95.5980   30.9720 C   0  0  0  0  0  0  0  0  0  0  0  0
   23.0760   96.9750   30.0810 Cl  0  0  0  0  0  0  0  0  0  0  0  0
   23.7540   94.4150   30.2590 C   0  0  0  0  0  0  0  0  0  0  0  0
   24.0820   93.2380   30.9250 C   0  0  0  0  0  0  0  0  0  0  0  0
   24.1780   93.2350   32.3130 C   0  0  0  0  0  0  0  0  0  0  0  0
   23.9410   94.4040   33.0300 C   0  0  0  0  0  0  0  0  0  0  0  0
   26.8050  101.8760   31.4330 O   0  0  0  0  0  0  0  0  0  0  0  0
   26.4988  100.8985   26.7021 H   0  0  0  0  0  0  0  0  0  0  0  0
   27.1186   99.3389   27.3425 H   0  0  0  0  0  0  0  0  0  0  0  0
   28.1145  100.8272   27.4839 H   0  0  0  0  0  0  0  0  0  0  0  0
   26.4898  101.7164   28.9592 H   0  0  0  0  0  0  0  0  0  0  0  0
   24.9830   99.2109   28.6400 H   0  0  0  0  0  0  0  0  0  0  0  0
   24.5026  100.8257   28.0170 H   0  0  0  0  0  0  0  0  0  0  0  0
   23.3655  100.1825   30.1848 H   0  0  0  0  0  0  0  0  0  0  0  0
   24.3040  101.7112   30.2788 H   0  0  0  0  0  0  0  0  0  0  0  0
   25.2182   98.9520   31.2202 H   0  0  0  0  0  0  0  0  0  0  0  0
   27.2392   99.9661   32.0607 H   0  0  0  0  0  0  0  0  0  0  0  0
   28.3054  100.4263   29.8516 H   0  0  0  0  0  0  0  0  0  0  0  0
   27.2290   98.9892   29.7984 H   0  0  0  0  0  0  0  0  0  0  0  0
   22.1952   95.9153   34.7613 H   0  0  0  0  0  0  0  0  0  0  0  0
   22.6792  100.1148   36.9227 H   0  0  0  0  0  0  0  0  0  0  0  0
   23.5053  102.5521   34.9644 H   0  0  0  0  0  0  0  0  0  0  0  0
   24.1591  103.2174   32.5891 H   0  0  0  0  0  0  0  0  0  0  0  0
   23.6856   94.4175   29.1772 H   0  0  0  0  0  0  0  0  0  0  0  0
   24.2619   92.3275   30.3649 H   0  0  0  0  0  0  0  0  0  0  0  0
   24.4375   92.3217   32.8362 H   0  0  0  0  0  0  0  0  0  0  0  0
   24.0168   94.3835   34.1112 H   0  0  0  0  0  0  0  0  0  0  0  0
   27.7245  102.1125   31.4001 H   0  0  0  0  0  0  0  0  0  0  0  0
  1  2  1  0  0  0  0
  1 29  1  0  0  0  0
  1 30  1  0  0  0  0
  1 31  1  0  0  0  0
  2  3  1  0  0  0  0
  2  7  1  0  0  0  0
  2 32  1  1  0  0  0
  3  4  1  0  0  0  0
  3 33  1  0  0  0  0
  3 34  1  0  0  0  0
  4  5  1  0  0  0  0
  4 35  1  0  0  0  0
  4 36  1  0  0  0  0
  5  6  1  0  0  0  0
  5  8  1  0  0  0  0
  5 37  1  6  0  0  0
  6  7  1  0  0  0  0
  6 28  1  0  0  0  0
  6 38  1  1  0  0  0
  7 39  1  0  0  0  0
  7 40  1  0  0  0  0
  8  9  2  0  0  0  0
  8 19  1  0  0  0  0
  9 10  1  0  0  0  0
  9 15  1  0  0  0  0
 10 11  1  0  0  0  0
 11 12  2  0  0  0  0
 11 21  1  0  0  0  0
 12 13  1  0  0  0  0
 12 41  1  0  0  0  0
 13 14  2  0  0  0  0
 13 15  1  0  0  0  0
 15 16  2  0  0  0  0
 16 17  1  0  0  0  0
 16 18  1  0  0  0  0
 17 42  1  0  0  0  0
 18 19  2  0  0  0  0
 18 43  1  0  0  0  0
 19 20  1  0  0  0  0
 20 44  1  0  0  0  0
 21 22  2  0  0  0  0
 21 27  1  0  0  0  0
 22 23  1  0  0  0  0
 22 24  1  0  0  0  0
 24 25  2  0  0  0  0
 24 45  1  0  0  0  0
 25 26  1  0  0  0  0
 25 46  1  0  0  0  0
 26 27  2  0  0  0  0
 26 47  1  0  0  0  0
 27 48  1  0  0  0  0
 28 49  1  0  0  0  0
M  CHG  1   2   1
M  END
