4o72_ligand
 OpenBabel08222323353D

 49 54  0  0  0  0  0  0  0  0999 V2000
  129.2520   -3.9790    0.1040 O   0  0  0  0  0  0  0  0  0  0  0  0
  128.2110   -4.6580   -0.0970 C   0  0  0  0  0  0  0  0  0  0  0  0
  126.9970   -4.4000    0.5890 C   0  0  0  0  0  0  0  0  0  0  0  0
  125.8420   -5.1800    0.3070 C   0  0  0  0  0  0  0  0  0  0  0  0
  124.5800   -4.9400    0.9170 C   0  0  0  0  0  0  0  0  0  0  0  0
  123.4690   -5.7710    0.5790 C   0  0  0  0  0  0  0  0  0  0  0  0
  123.0250   -5.9050   -0.7590 C   0  0  0  0  0  0  0  0  0  0  0  0
  121.9410   -6.7400   -1.1010 C   0  0  0  0  0  0  0  0  0  0  0  0
  121.2700   -7.4700   -0.1120 C   0  0  0  0  0  0  0  0  0  0  0  0
  121.6930   -7.3580    1.2330 C   0  0  0  0  0  0  0  0  0  0  0  0
  122.7790   -6.5120    1.5400 C   0  0  0  0  0  0  0  0  0  0  0  0
  123.0790   -6.5230    3.2730 S   0  0  0  0  0  0  0  0  0  0  0  0
  121.8300   -7.7130    3.5690 C   0  0  0  0  0  0  0  0  0  0  0  0
  121.1750   -8.0270    2.3630 C   0  0  0  0  0  0  0  0  0  0  0  0
  120.1220   -8.9650    2.4030 C   0  0  0  0  0  0  0  0  0  0  0  0
  119.7360   -9.5160    3.6310 C   0  0  0  0  0  0  0  0  0  0  0  0
  120.4120   -9.1920    4.8190 C   0  0  0  0  0  0  0  0  0  0  0  0
  121.4710   -8.2820    4.7990 C   0  0  0  0  0  0  0  0  0  0  0  0
  124.5190   -3.9380    1.8960 C   0  0  0  0  0  0  0  0  0  0  0  0
  125.6400   -3.1350    2.1770 C   0  0  0  0  0  0  0  0  0  0  0  0
  126.8590   -3.3550    1.5280 C   0  0  0  0  0  0  0  0  0  0  0  0
  125.9640   -6.1600   -0.6210 O   0  0  0  0  0  0  0  0  0  0  0  0
  127.0760   -6.3870   -1.3600 C   0  0  0  0  0  0  0  0  0  0  0  0
  126.9270   -7.3310   -2.3330 N   0  0  0  0  0  0  0  0  0  0  0  0
  125.6750   -8.0480   -2.4940 C   0  0  0  0  0  0  0  0  0  0  0  0
  125.1440   -7.8370   -3.9230 C   0  0  0  0  0  0  0  0  0  0  0  0
  126.1770   -8.1740   -4.8590 O   0  0  0  0  0  0  0  0  0  0  0  0
  127.3220   -7.3270   -4.7010 C   0  0  0  0  0  0  0  0  0  0  0  0
  127.9510   -7.5880   -3.3250 C   0  0  0  0  0  0  0  0  0  0  0  0
  128.2350   -5.6300   -1.1010 C   0  0  0  0  0  0  0  0  0  0  0  0
  123.5317   -5.3512   -1.5411 H   0  0  0  0  0  0  0  0  0  0  0  0
  121.6255   -6.8171   -2.1352 H   0  0  0  0  0  0  0  0  0  0  0  0
  120.4372   -8.1126   -0.3739 H   0  0  0  0  0  0  0  0  0  0  0  0
  119.6156   -9.2569    1.4901 H   0  0  0  0  0  0  0  0  0  0  0  0
  118.9001  -10.2053    3.6656 H   0  0  0  0  0  0  0  0  0  0  0  0
  120.1106   -9.6498    5.7542 H   0  0  0  0  0  0  0  0  0  0  0  0
  122.0005   -8.0229    5.7087 H   0  0  0  0  0  0  0  0  0  0  0  0
  123.5967   -3.7799    2.4433 H   0  0  0  0  0  0  0  0  0  0  0  0
  125.5576   -2.3363    2.9053 H   0  0  0  0  0  0  0  0  0  0  0  0
  127.7068   -2.7164    1.7483 H   0  0  0  0  0  0  0  0  0  0  0  0
  124.9393   -7.6687   -1.7696 H   0  0  0  0  0  0  0  0  0  0  0  0
  125.8418   -9.1212   -2.3194 H   0  0  0  0  0  0  0  0  0  0  0  0
  124.8538   -6.7845   -4.0571 H   0  0  0  0  0  0  0  0  0  0  0  0
  124.2694   -8.4827   -4.0906 H   0  0  0  0  0  0  0  0  0  0  0  0
  127.0139   -6.2734   -4.7717 H   0  0  0  0  0  0  0  0  0  0  0  0
  128.0560   -7.5482   -5.4899 H   0  0  0  0  0  0  0  0  0  0  0  0
  128.2889   -8.6326   -3.2566 H   0  0  0  0  0  0  0  0  0  0  0  0
  128.8065   -6.9148   -3.1674 H   0  0  0  0  0  0  0  0  0  0  0  0
  129.1425   -5.8006   -1.6783 H   0  0  0  0  0  0  0  0  0  0  0  0
  1  2  2  0  0  0  0
  2  3  1  0  0  0  0
  2 30  1  0  0  0  0
  3  4  2  0  0  0  0
  3 21  1  0  0  0  0
  4  5  1  0  0  0  0
  4 22  1  0  0  0  0
  5  6  1  0  0  0  0
  5 19  2  0  0  0  0
  6  7  2  0  0  0  0
  6 11  1  0  0  0  0
  7  8  1  0  0  0  0
  7 31  1  0  0  0  0
  8  9  2  0  0  0  0
  8 32  1  0  0  0  0
  9 10  1  0  0  0  0
  9 33  1  0  0  0  0
 10 11  2  0  0  0  0
 10 14  1  0  0  0  0
 11 12  1  0  0  0  0
 12 13  1  0  0  0  0
 13 14  2  0  0  0  0
 13 18  1  0  0  0  0
 14 15  1  0  0  0  0
 15 16  2  0  0  0  0
 15 34  1  0  0  0  0
 16 17  1  0  0  0  0
 16 35  1  0  0  0  0
 17 18  2  0  0  0  0
 17 36  1  0  0  0  0
 18 37  1  0  0  0  0
 19 20  1  0  0  0  0
 19 38  1  0  0  0  0
 20 21  2  0  0  0  0
 20 39  1  0  0  0  0
 21 40  1  0  0  0  0
 22 23  1  0  0  0  0
 23 24  1  0  0  0  0
 23 30  2  0  0  0  0
 24 25  1  0  0  0  0
 24 29  1  0  0  0  0
 25 26  1  0  0  0  0
 25 41  1  0  0  0  0
 25 42  1  0  0  0  0
 26 27  1  0  0  0  0
 26 43  1  0  0  0  0
 26 44  1  0  0  0  0
 27 28  1  0  0  0  0
 28 29  1  0  0  0  0
 28 45  1  0  0  0  0
 28 46  1  0  0  0  0
 29 47  1  0  0  0  0
 29 48  1  0  0  0  0
 30 49  1  0  0  0  0
M  END
