4o78_ligand
 OpenBabel08222323353D

 52 55  0  0  0  0  0  0  0  0999 V2000
  119.7320   -6.9520    3.0590 N   0  0  0  0  0  0  0  0  0  0  0  0
  117.0850   -9.7690    0.4750 N   0  0  0  0  0  0  0  0  0  0  0  0
  120.8560   -6.9170    2.2940 C   0  0  0  0  0  0  0  0  0  0  0  0
  118.6030   -7.6590    2.9430 C   0  0  0  0  0  0  0  0  0  0  0  0
  116.5420   -8.4200    3.8220 C   0  0  0  0  0  0  0  0  0  0  0  0
  116.3040   -9.1350    2.6460 C   0  0  0  0  0  0  0  0  0  0  0  0
  117.2780   -9.0930    1.6230 C   0  0  0  0  0  0  0  0  0  0  0  0
  118.3630   -8.5040   -1.1550 C   0  0  0  0  0  0  0  0  0  0  0  0
  120.2930   -9.9980   -4.0800 C   0  0  0  0  0  0  0  0  0  0  0  0
  119.0420  -10.8860   -2.4650 C   0  0  0  0  0  0  0  0  0  0  0  0
  121.7460   -5.8730    2.5880 C   0  0  0  0  0  0  0  0  0  0  0  0
  123.2900   -6.6620    0.9430 C   0  0  0  0  0  0  0  0  0  0  0  0
  125.5270   -7.3740    0.7220 C   0  0  0  0  0  0  0  0  0  0  0  0
  122.0810   -9.7620   -0.5550 C   0  0  0  0  0  0  0  0  0  0  0  0
  122.8290   -8.5640   -0.3300 O   0  0  0  0  0  0  0  0  0  0  0  0
  122.4160   -7.7120    0.6380 C   0  0  0  0  0  0  0  0  0  0  0  0
  121.2100   -7.8510    1.3140 C   0  0  0  0  0  0  0  0  0  0  0  0
  117.6890   -7.7070    3.9380 N   0  0  0  0  0  0  0  0  0  0  0  0
  117.8900   -9.7450   -0.6450 C   0  0  0  0  0  0  0  0  0  0  0  0
  119.1750   -8.4700   -2.3150 C   0  0  0  0  0  0  0  0  0  0  0  0
  119.5140   -9.6750   -2.9590 C   0  0  0  0  0  0  0  0  0  0  0  0
  121.0320   -9.1160   -5.0030 C   0  0  0  0  0  0  0  0  0  0  0  0
  120.2540  -11.3400   -4.1780 N   0  0  0  0  0  0  0  0  0  0  0  0
  119.5010  -11.8800   -3.2560 N   0  0  0  0  0  0  0  0  0  0  0  0
  118.2310  -10.9360   -1.3180 C   0  0  0  0  0  0  0  0  0  0  0  0
  118.3970   -8.3550    1.8010 N   0  0  0  0  0  0  0  0  0  0  0  0
  122.9650   -5.7290    1.9170 C   0  0  0  0  0  0  0  0  0  0  0  0
  123.8630   -4.7320    2.1460 O   0  0  0  0  0  0  0  0  0  0  0  0
  123.4920   -3.6410    3.0060 C   0  0  0  0  0  0  0  0  0  0  0  0
  124.4720   -6.5280    0.2540 O   0  0  0  0  0  0  0  0  0  0  0  0
  119.7545   -6.3213    3.8730 H   0  0  0  0  0  0  0  0  0  0  0  0
  116.2479  -10.3673    0.4279 H   0  0  0  0  0  0  0  0  0  0  0  0
  115.8199   -8.4351    4.6303 H   0  0  0  0  0  0  0  0  0  0  0  0
  115.3930   -9.7090    2.5209 H   0  0  0  0  0  0  0  0  0  0  0  0
  118.1006   -7.5796   -0.6532 H   0  0  0  0  0  0  0  0  0  0  0  0
  121.4813   -5.1570    3.3576 H   0  0  0  0  0  0  0  0  0  0  0  0
  126.4300   -7.2023    0.1178 H   0  0  0  0  0  0  0  0  0  0  0  0
  125.2203   -8.4265    0.6319 H   0  0  0  0  0  0  0  0  0  0  0  0
  125.7417   -7.1435    1.7759 H   0  0  0  0  0  0  0  0  0  0  0  0
  122.5466  -10.3376   -1.3685 H   0  0  0  0  0  0  0  0  0  0  0  0
  121.0488   -9.5030   -0.8333 H   0  0  0  0  0  0  0  0  0  0  0  0
  122.0723  -10.3669    0.3637 H   0  0  0  0  0  0  0  0  0  0  0  0
  120.5477   -8.6776    1.0837 H   0  0  0  0  0  0  0  0  0  0  0  0
  119.5326   -7.5235   -2.7039 H   0  0  0  0  0  0  0  0  0  0  0  0
  121.5323   -9.7250   -5.7704 H   0  0  0  0  0  0  0  0  0  0  0  0
  121.7848   -8.5445   -4.4402 H   0  0  0  0  0  0  0  0  0  0  0  0
  120.3301   -8.4208   -5.4868 H   0  0  0  0  0  0  0  0  0  0  0  0
  119.2946  -12.8837   -3.1514 H   0  0  0  0  0  0  0  0  0  0  0  0
  117.8681  -11.8894   -0.9513 H   0  0  0  0  0  0  0  0  0  0  0  0
  124.3292   -2.9313    3.0799 H   0  0  0  0  0  0  0  0  0  0  0  0
  123.2506   -4.0286    4.0067 H   0  0  0  0  0  0  0  0  0  0  0  0
  122.6125   -3.1283    2.5893 H   0  0  0  0  0  0  0  0  0  0  0  0
  1  3  1  0  0  0  0
  1 31  1  0  0  0  0
  2  7  1  0  0  0  0
  2 32  1  0  0  0  0
  3 11  2  0  0  0  0
  3 17  1  0  0  0  0
  4  1  1  0  0  0  0
  4 18  2  0  0  0  0
  5 18  1  0  0  0  0
  5 33  1  0  0  0  0
  6  5  2  0  0  0  0
  6 34  1  0  0  0  0
  7  6  1  0  0  0  0
  7 26  2  0  0  0  0
  8 20  1  0  0  0  0
  8 35  1  0  0  0  0
  9 22  1  0  0  0  0
  9 23  2  0  0  0  0
 10 21  1  0  0  0  0
 10 24  1  0  0  0  0
 11 27  1  0  0  0  0
 11 36  1  0  0  0  0
 12 30  1  0  0  0  0
 13 37  1  0  0  0  0
 13 38  1  0  0  0  0
 13 39  1  0  0  0  0
 14 40  1  0  0  0  0
 14 41  1  0  0  0  0
 14 42  1  0  0  0  0
 15 14  1  0  0  0  0
 16 12  1  0  0  0  0
 16 15  1  0  0  0  0
 17 16  2  0  0  0  0
 17 43  1  0  0  0  0
 19  2  1  0  0  0  0
 19  8  2  0  0  0  0
 19 25  1  0  0  0  0
 20 21  2  0  0  0  0
 20 44  1  0  0  0  0
 21  9  1  0  0  0  0
 22 45  1  0  0  0  0
 22 46  1  0  0  0  0
 22 47  1  0  0  0  0
 23 24  1  0  0  0  0
 24 48  1  0  0  0  0
 25 10  2  0  0  0  0
 25 49  1  0  0  0  0
 26  4  1  0  0  0  0
 27 12  2  0  0  0  0
 27 28  1  0  0  0  0
 28 29  1  0  0  0  0
 29 50  1  0  0  0  0
 29 51  1  0  0  0  0
 29 52  1  0  0  0  0
 30 13  1  0  0  0  0
M  END
