4o7b_ligand
 OpenBabel08222323353D

 60 64  0  0  0  0  0  0  0  0999 V2000
  121.7470   -5.5350   -6.6150 C   0  0  0  0  0  0  0  0  0  0  0  0
  121.4760   -6.5460   -5.5640 C   0  0  0  0  0  0  0  0  0  0  0  0
  121.1230   -6.2480   -4.2070 C   0  0  0  0  0  0  0  0  0  0  0  0
  120.9200   -7.3220   -3.3030 C   0  0  0  0  0  0  0  0  0  0  0  0
  121.0350   -8.6670   -3.7250 C   0  0  0  0  0  0  0  0  0  0  0  0
  121.3960   -8.9380   -5.0420 C   0  0  0  0  0  0  0  0  0  0  0  0
  121.5990   -7.8920   -5.9490 C   0  0  0  0  0  0  0  0  0  0  0  0
  120.5190   -7.0970   -2.0150 O   0  0  0  0  0  0  0  0  0  0  0  0
  121.4500   -6.8320   -1.0670 C   0  0  0  0  0  0  0  0  0  0  0  0
  121.0600   -6.8370    0.2230 N   0  0  0  0  0  0  0  0  0  0  0  0
  121.9450   -6.5830    1.2240 C   0  0  0  0  0  0  0  0  0  0  0  0
  123.2850   -6.3500    0.9070 C   0  0  0  0  0  0  0  0  0  0  0  0
  123.6780   -6.3260   -0.4650 C   0  0  0  0  0  0  0  0  0  0  0  0
  122.7310   -6.5930   -1.4040 N   0  0  0  0  0  0  0  0  0  0  0  0
  125.0320   -6.1110   -0.8610 C   0  0  0  0  0  0  0  0  0  0  0  0
  125.9960   -5.2910   -0.2400 C   0  0  0  0  0  0  0  0  0  0  0  0
  127.1650   -5.4020   -0.8980 N   0  0  0  0  0  0  0  0  0  0  0  0
  126.9590   -6.2760   -1.8870 C   0  0  0  0  0  0  0  0  0  0  0  0
  125.6840   -6.7230   -1.8990 N   0  0  0  0  0  0  0  0  0  0  0  0
  125.1790   -7.6910   -2.8600 C   0  0  0  0  0  0  0  0  0  0  0  0
  125.6720   -9.1450   -2.6600 C   0  0  0  0  0  0  0  0  0  0  0  0
  125.1310  -10.0730   -3.7750 C   0  0  0  0  0  0  0  0  0  0  0  0
  125.5210   -9.5820   -5.1130 N   0  3  0  0  0  0  0  0  0  0  0  0
  125.0360   -8.2110   -5.3710 C   0  0  0  0  0  0  0  0  0  0  0  0
  125.5270   -7.2010   -4.2990 C   0  0  0  0  0  0  0  0  0  0  0  0
  125.9180   -4.3680    0.8300 C   0  0  0  0  0  0  0  0  0  0  0  0
  127.0890   -4.0180    1.5310 C   0  0  0  0  0  0  0  0  0  0  0  0
  127.0430   -3.0730    2.5530 C   0  0  0  0  0  0  0  0  0  0  0  0
  125.8360   -2.4340    2.8870 C   0  0  0  0  0  0  0  0  0  0  0  0
  124.6650   -2.7510    2.1900 C   0  0  0  0  0  0  0  0  0  0  0  0
  124.7180   -3.6960    1.1510 C   0  0  0  0  0  0  0  0  0  0  0  0
  125.8130   -1.5540    3.8600 F   0  0  0  0  0  0  0  0  0  0  0  0
  120.9670   -4.8560   -3.7160 C   0  0  0  0  0  0  0  0  0  0  0  0
  121.9930   -6.0440   -7.5586 H   0  0  0  0  0  0  0  0  0  0  0  0
  122.5938   -4.9040   -6.3072 H   0  0  0  0  0  0  0  0  0  0  0  0
  120.8552   -4.9073   -6.7587 H   0  0  0  0  0  0  0  0  0  0  0  0
  120.8442   -9.4776   -3.0310 H   0  0  0  0  0  0  0  0  0  0  0  0
  121.5205   -9.9648   -5.3665 H   0  0  0  0  0  0  0  0  0  0  0  0
  121.8579   -8.1260   -6.9753 H   0  0  0  0  0  0  0  0  0  0  0  0
  121.6141   -6.5617    2.2560 H   0  0  0  0  0  0  0  0  0  0  0  0
  124.0159   -6.1897    1.6913 H   0  0  0  0  0  0  0  0  0  0  0  0
  127.7240   -6.5894   -2.5958 H   0  0  0  0  0  0  0  0  0  0  0  0
  124.0839   -7.7078   -2.7582 H   0  0  0  0  0  0  0  0  0  0  0  0
  125.3213   -9.5127   -1.6844 H   0  0  0  0  0  0  0  0  0  0  0  0
  126.7717   -9.1583   -2.6831 H   0  0  0  0  0  0  0  0  0  0  0  0
  124.0334  -10.1085   -3.7115 H   0  0  0  0  0  0  0  0  0  0  0  0
  125.5396  -11.0840   -3.6304 H   0  0  0  0  0  0  0  0  0  0  0  0
  125.1343  -10.1990   -5.8100 H   0  0  0  0  0  0  0  0  0  0  0  0
  126.5268   -9.5878   -5.1799 H   0  0  0  0  0  0  0  0  0  0  0  0
  123.9360   -8.2191   -5.3718 H   0  0  0  0  0  0  0  0  0  0  0  0
  125.4010   -7.8862   -6.3565 H   0  0  0  0  0  0  0  0  0  0  0  0
  126.6178   -7.0882   -4.3855 H   0  0  0  0  0  0  0  0  0  0  0  0
  125.0428   -6.2289   -4.4738 H   0  0  0  0  0  0  0  0  0  0  0  0
  128.0316   -4.4872    1.2733 H   0  0  0  0  0  0  0  0  0  0  0  0
  127.9479   -2.8274    3.0970 H   0  0  0  0  0  0  0  0  0  0  0  0
  123.7271   -2.2730    2.4485 H   0  0  0  0  0  0  0  0  0  0  0  0
  123.8197   -3.9135    0.5846 H   0  0  0  0  0  0  0  0  0  0  0  0
  121.1584   -4.1529   -4.5401 H   0  0  0  0  0  0  0  0  0  0  0  0
  121.6842   -4.6715   -2.9026 H   0  0  0  0  0  0  0  0  0  0  0  0
  119.9428   -4.7119   -3.3416 H   0  0  0  0  0  0  0  0  0  0  0  0
  1  2  1  0  0  0  0
  1 34  1  0  0  0  0
  1 35  1  0  0  0  0
  1 36  1  0  0  0  0
  2  3  2  0  0  0  0
  2  7  1  0  0  0  0
  3  4  1  0  0  0  0
  3 33  1  0  0  0  0
  4  5  2  0  0  0  0
  4  8  1  0  0  0  0
  5  6  1  0  0  0  0
  5 37  1  0  0  0  0
  6  7  2  0  0  0  0
  6 38  1  0  0  0  0
  7 39  1  0  0  0  0
  8  9  1  0  0  0  0
  9 10  2  0  0  0  0
  9 14  1  0  0  0  0
 10 11  1  0  0  0  0
 11 12  2  0  0  0  0
 11 40  1  0  0  0  0
 12 13  1  0  0  0  0
 12 41  1  0  0  0  0
 13 14  2  0  0  0  0
 13 15  1  0  0  0  0
 15 16  2  0  0  0  0
 15 19  1  0  0  0  0
 16 17  1  0  0  0  0
 16 26  1  0  0  0  0
 17 18  2  0  0  0  0
 18 19  1  0  0  0  0
 18 42  1  0  0  0  0
 19 20  1  0  0  0  0
 20 21  1  0  0  0  0
 20 25  1  0  0  0  0
 20 43  1  0  0  0  0
 21 22  1  0  0  0  0
 21 44  1  0  0  0  0
 21 45  1  0  0  0  0
 22 23  1  0  0  0  0
 22 46  1  0  0  0  0
 22 47  1  0  0  0  0
 23 24  1  0  0  0  0
 23 48  1  0  0  0  0
 23 49  1  0  0  0  0
 24 25  1  0  0  0  0
 24 50  1  0  0  0  0
 24 51  1  0  0  0  0
 25 52  1  0  0  0  0
 25 53  1  0  0  0  0
 26 27  2  0  0  0  0
 26 31  1  0  0  0  0
 27 28  1  0  0  0  0
 27 54  1  0  0  0  0
 28 29  2  0  0  0  0
 28 55  1  0  0  0  0
 29 30  1  0  0  0  0
 29 32  1  0  0  0  0
 30 31  2  0  0  0  0
 30 56  1  0  0  0  0
 31 57  1  0  0  0  0
 33 58  1  0  0  0  0
 33 59  1  0  0  0  0
 33 60  1  0  0  0  0
M  CHG  1  23   1
M  END
