4o7c_ligand
 OpenBabel08222323353D

 52 56  0  0  1  0  0  0  0  0999 V2000
  114.1370   -8.1560    2.6650 C   0  0  0  0  0  0  0  0  0  0  0  0
  113.0650   -8.4270    3.7530 C   0  0  0  0  0  0  0  0  0  0  0  0
  112.9440   -9.8640    4.0500 N   0  3  0  0  0  0  0  0  0  0  0  0
  114.2100  -10.4520    4.5290 C   0  0  0  0  0  0  0  0  0  0  0  0
  115.3270  -10.2680    3.4730 C   0  0  0  0  0  0  0  0  0  0  0  0
  115.5020   -8.7850    3.0740 C   0  0  0  0  0  0  0  0  0  0  0  0
  116.5530   -8.6520    2.0310 C   0  0  0  0  0  0  0  0  0  0  0  0
  117.7120   -8.0150    2.2020 N   0  0  0  0  0  0  0  0  0  0  0  0
  118.4340   -8.1130    1.0850 C   0  0  0  0  0  0  0  0  0  0  0  0
  119.7070   -7.5400    0.9960 C   0  0  0  0  0  0  0  0  0  0  0  0
  120.7530   -8.1280    0.2200 C   0  0  0  0  0  0  0  0  0  0  0  0
  122.0470   -7.5440    0.1810 C   0  0  0  0  0  0  0  0  0  0  0  0
  122.3120   -6.3630    0.8670 C   0  0  0  0  0  0  0  0  0  0  0  0
  123.4380   -5.6050    0.9430 C   0  0  1  0  0  0  0  0  0  0  0  0
  123.2360   -4.4580    1.8140 C   0  0  0  0  0  0  0  0  0  0  0  0
  121.7700   -4.5610    2.2430 C   0  0  0  0  0  0  0  0  0  0  0  0
  121.3070   -5.7810    1.5930 C   0  0  0  0  0  0  0  0  0  0  0  0
  120.0260   -6.3470    1.7040 C   0  0  0  0  0  0  0  0  0  0  0  0
  124.5690   -5.8190    0.3480 N   0  0  0  0  0  0  0  0  0  0  0  0
  125.4400   -4.9670    0.3320 O   0  0  0  0  0  0  0  0  0  0  0  0
  117.7020   -8.8510    0.1470 C   0  0  0  0  0  0  0  0  0  0  0  0
  117.9640   -9.2170   -1.1860 C   0  0  0  0  0  0  0  0  0  0  0  0
  118.6500   -8.3690   -2.0420 C   0  0  0  0  0  0  0  0  0  0  0  0
  118.8980   -8.7110   -3.3240 C   0  0  0  0  0  0  0  0  0  0  0  0
  118.4580   -9.8950   -3.7930 N   0  0  0  0  0  0  0  0  0  0  0  0
  117.7700  -10.7380   -2.9960 C   0  0  0  0  0  0  0  0  0  0  0  0
  117.5150  -10.4190   -1.7070 C   0  0  0  0  0  0  0  0  0  0  0  0
  116.5490   -9.1680    0.7760 N   0  0  0  0  0  0  0  0  0  0  0  0
  114.2614   -7.0700    2.5422 H   0  0  0  0  0  0  0  0  0  0  0  0
  113.8061   -8.5971    1.7132 H   0  0  0  0  0  0  0  0  0  0  0  0
  112.0935   -8.0531    3.3976 H   0  0  0  0  0  0  0  0  0  0  0  0
  113.3482   -7.8951    4.6733 H   0  0  0  0  0  0  0  0  0  0  0  0
  112.6619  -10.3448    3.2102 H   0  0  0  0  0  0  0  0  0  0  0  0
  112.2405   -9.9888    4.7610 H   0  0  0  0  0  0  0  0  0  0  0  0
  114.0624  -11.5258    4.7164 H   0  0  0  0  0  0  0  0  0  0  0  0
  114.5096   -9.9545    5.4632 H   0  0  0  0  0  0  0  0  0  0  0  0
  115.0682  -10.8497    2.5760 H   0  0  0  0  0  0  0  0  0  0  0  0
  116.2752  -10.6387    3.8895 H   0  0  0  0  0  0  0  0  0  0  0  0
  115.8552   -8.2397    3.9616 H   0  0  0  0  0  0  0  0  0  0  0  0
  120.5563   -9.0313   -0.3461 H   0  0  0  0  0  0  0  0  0  0  0  0
  122.8354   -8.0228   -0.3885 H   0  0  0  0  0  0  0  0  0  0  0  0
  123.1201   -5.0298    0.0609 H   0  0  0  0  0  0  0  0  0  0  0  0
  123.4176   -3.5192    1.2702 H   0  0  0  0  0  0  0  0  0  0  0  0
  123.9021   -4.5104    2.6878 H   0  0  0  0  0  0  0  0  0  0  0  0
  121.1968   -3.6890    1.8951 H   0  0  0  0  0  0  0  0  0  0  0  0
  121.6857   -4.6426    3.3367 H   0  0  0  0  0  0  0  0  0  0  0  0
  119.2785   -5.8740    2.3305 H   0  0  0  0  0  0  0  0  0  0  0  0
  118.9949   -7.4097   -1.6734 H   0  0  0  0  0  0  0  0  0  0  0  0
  119.4475   -8.0376   -3.9719 H   0  0  0  0  0  0  0  0  0  0  0  0
  117.4172  -11.6827   -3.3937 H   0  0  0  0  0  0  0  0  0  0  0  0
  116.9579  -11.1057   -1.0800 H   0  0  0  0  0  0  0  0  0  0  0  0
  115.7820   -9.7188    0.3646 H   0  0  0  0  0  0  0  0  0  0  0  0
  1  2  1  0  0  0  0
  1  6  1  0  0  0  0
  1 29  1  0  0  0  0
  1 30  1  0  0  0  0
  2  3  1  0  0  0  0
  2 31  1  0  0  0  0
  2 32  1  0  0  0  0
  3  4  1  0  0  0  0
  3 33  1  0  0  0  0
  3 34  1  0  0  0  0
  4  5  1  0  0  0  0
  4 35  1  0  0  0  0
  4 36  1  0  0  0  0
  5  6  1  0  0  0  0
  5 37  1  0  0  0  0
  5 38  1  0  0  0  0
  6  7  1  0  0  0  0
  6 39  1  0  0  0  0
  7  8  2  0  0  0  0
  7 28  1  0  0  0  0
  8  9  1  0  0  0  0
  9 10  1  0  0  0  0
  9 21  2  0  0  0  0
 10 11  2  0  0  0  0
 10 18  1  0  0  0  0
 11 12  1  0  0  0  0
 11 40  1  0  0  0  0
 12 13  2  0  0  0  0
 12 41  1  0  0  0  0
 13 14  1  0  0  0  0
 13 17  1  0  0  0  0
 14 15  1  0  0  0  0
 14 19  1  0  0  0  0
 14 42  1  6  0  0  0
 15 16  1  0  0  0  0
 15 43  1  0  0  0  0
 15 44  1  0  0  0  0
 16 17  1  0  0  0  0
 16 45  1  0  0  0  0
 16 46  1  0  0  0  0
 17 18  2  0  0  0  0
 18 47  1  0  0  0  0
 19 20  2  0  0  0  0
 21 22  1  0  0  0  0
 21 28  1  0  0  0  0
 22 23  2  0  0  0  0
 22 27  1  0  0  0  0
 23 24  1  0  0  0  0
 23 48  1  0  0  0  0
 24 25  2  0  0  0  0
 24 49  1  0  0  0  0
 25 26  1  0  0  0  0
 26 27  2  0  0  0  0
 26 50  1  0  0  0  0
 27 51  1  0  0  0  0
 28 52  1  0  0  0  0
M  CHG  1   3   1
M  END
