4o7d_ligand
 OpenBabel08222323353D

 21 20  0  0  1  0  0  0  0  0999 V2000
   20.9380   -8.5420   64.5200 N   0  3  0  0  0  0  0  0  0  0  0  0
   20.0680   -7.4010   64.8690 C   0  0  2  0  0  0  0  0  0  0  0  0
   18.9540   -7.9190   65.8330 C   0  0  0  0  0  0  0  0  0  0  0  0
   18.4710   -7.1450   66.7100 O   0  5  0  0  0  0  0  0  0  0  0  0
   18.6250   -9.1200   65.6710 O   0  0  0  0  0  0  0  0  0  0  0  0
   19.4960   -6.7460   63.5950 C   0  0  0  0  0  0  0  0  0  0  0  0
   18.6550   -5.4680   63.7700 C   0  0  0  0  0  0  0  0  0  0  0  0
   18.1860   -5.1520   62.3590 C   0  0  0  0  0  0  0  0  0  0  0  0
   18.9740   -5.0170   61.4330 O   0  0  0  0  0  0  0  0  0  0  0  0
   16.6900   -5.3960   62.0850 C   0  0  0  0  0  0  0  0  0  0  0  0
   21.6665   -8.2307   63.8968 H   0  0  0  0  0  0  0  0  0  0  0  0
   20.3900   -9.2559   64.0662 H   0  0  0  0  0  0  0  0  0  0  0  0
   21.3515   -8.9182   65.3588 H   0  0  0  0  0  0  0  0  0  0  0  0
   20.6658   -6.6459   65.4004 H   0  0  0  0  0  0  0  0  0  0  0  0
   18.8606   -7.4931   63.0970 H   0  0  0  0  0  0  0  0  0  0  0  0
   20.3459   -6.4947   62.9435 H   0  0  0  0  0  0  0  0  0  0  0  0
   19.2667   -4.6476   64.1734 H   0  0  0  0  0  0  0  0  0  0  0  0
   17.7992   -5.6494   64.4368 H   0  0  0  0  0  0  0  0  0  0  0  0
   16.4614   -5.1364   61.0408 H   0  0  0  0  0  0  0  0  0  0  0  0
   16.0869   -4.7699   62.7589 H   0  0  0  0  0  0  0  0  0  0  0  0
   16.4534   -6.4560   62.2595 H   0  0  0  0  0  0  0  0  0  0  0  0
  1  2  1  0  0  0  0
  1 11  1  0  0  0  0
  1 12  1  0  0  0  0
  1 13  1  0  0  0  0
  2  3  1  0  0  0  0
  2  6  1  0  0  0  0
  2 14  1  1  0  0  0
  3  4  1  0  0  0  0
  3  5  2  0  0  0  0
  6  7  1  0  0  0  0
  6 15  1  0  0  0  0
  6 16  1  0  0  0  0
  7  8  1  0  0  0  0
  7 17  1  0  0  0  0
  7 18  1  0  0  0  0
  8  9  2  0  0  0  0
  8 10  1  0  0  0  0
 10 19  1  0  0  0  0
 10 20  1  0  0  0  0
 10 21  1  0  0  0  0
M  CHG  2   1   1   4  -1
M  END
