4o7e_ligand
 OpenBabel08222323353D

 39 42  0  0  0  0  0  0  0  0999 V2000
   66.0920  121.5140   32.4270 C   0  0  0  0  0  0  0  0  0  0  0  0
   65.2060  121.6710   33.4870 C   0  0  0  0  0  0  0  0  0  0  0  0
   64.9350  122.9380   33.9830 C   0  0  0  0  0  0  0  0  0  0  0  0
   65.5700  124.0600   33.3950 C   0  0  0  0  0  0  0  0  0  0  0  0
   66.4520  123.9130   32.3310 C   0  0  0  0  0  0  0  0  0  0  0  0
   66.7190  122.6390   31.8410 C   0  0  0  0  0  0  0  0  0  0  0  0
   65.2660  125.4740   33.9530 C   0  0  0  0  0  0  0  0  0  0  0  0
   65.6670  126.6350   33.4170 N   0  0  0  0  0  0  0  0  0  0  0  0
   65.2030  127.6130   34.1910 C   0  0  0  0  0  0  0  0  0  0  0  0
   64.5120  127.0370   35.2340 C   0  0  0  0  0  0  0  0  0  0  0  0
   64.5590  125.7380   35.0790 N   0  0  0  0  0  0  0  0  0  0  0  0
   63.7870  127.7030   36.4040 C   0  0  0  0  0  0  0  0  0  0  0  0
   64.2110  128.9470   36.9910 C   0  0  0  0  0  0  0  0  0  0  0  0
   63.5010  129.4610   38.0390 C   0  0  0  0  0  0  0  0  0  0  0  0
   62.4240  128.8190   38.5240 N   0  0  0  0  0  0  0  0  0  0  0  0
   61.9880  127.6640   38.0190 C   0  0  0  0  0  0  0  0  0  0  0  0
   62.6580  127.0780   36.9570 C   0  0  0  0  0  0  0  0  0  0  0  0
   65.4600  129.0600   33.9010 C   0  0  0  0  0  0  0  0  0  0  0  0
   66.7760  129.4600   33.6830 C   0  0  0  0  0  0  0  0  0  0  0  0
   67.0500  130.8160   33.3940 C   0  0  0  0  0  0  0  0  0  0  0  0
   66.0100  131.7490   33.3220 C   0  0  0  0  0  0  0  0  0  0  0  0
   64.6780  131.3340   33.5300 C   0  0  0  0  0  0  0  0  0  0  0  0
   64.4000  129.9850   33.8190 C   0  0  0  0  0  0  0  0  0  0  0  0
   68.3850  131.2250   33.1850 O   0  0  0  0  0  0  0  0  0  0  0  0
   66.3042  120.5215   32.0463 H   0  0  0  0  0  0  0  0  0  0  0  0
   64.7269  120.8033   33.9259 H   0  0  0  0  0  0  0  0  0  0  0  0
   64.2462  123.0680   34.8099 H   0  0  0  0  0  0  0  0  0  0  0  0
   66.9264  124.7813   31.8881 H   0  0  0  0  0  0  0  0  0  0  0  0
   67.4056  122.5083   31.0124 H   0  0  0  0  0  0  0  0  0  0  0  0
   66.2309  126.7493   32.5627 H   0  0  0  0  0  0  0  0  0  0  0  0
   65.0806  129.4682   36.6073 H   0  0  0  0  0  0  0  0  0  0  0  0
   63.8103  130.3991   38.4855 H   0  0  0  0  0  0  0  0  0  0  0  0
   61.1110  127.1846   38.4387 H   0  0  0  0  0  0  0  0  0  0  0  0
   62.3096  126.1347   36.5522 H   0  0  0  0  0  0  0  0  0  0  0  0
   67.5828  128.7379   33.7345 H   0  0  0  0  0  0  0  0  0  0  0  0
   66.2274  132.7889   33.1068 H   0  0  0  0  0  0  0  0  0  0  0  0
   63.8695  132.0533   33.4673 H   0  0  0  0  0  0  0  0  0  0  0  0
   63.3781  129.6599   33.9773 H   0  0  0  0  0  0  0  0  0  0  0  0
   68.9617  130.4747   33.2686 H   0  0  0  0  0  0  0  0  0  0  0  0
  1  2  2  0  0  0  0
  1  6  1  0  0  0  0
  1 25  1  0  0  0  0
  2  3  1  0  0  0  0
  2 26  1  0  0  0  0
  3  4  2  0  0  0  0
  3 27  1  0  0  0  0
  4  5  1  0  0  0  0
  4  7  1  0  0  0  0
  5  6  2  0  0  0  0
  5 28  1  0  0  0  0
  6 29  1  0  0  0  0
  7  8  1  0  0  0  0
  7 11  2  0  0  0  0
  8  9  1  0  0  0  0
  8 30  1  0  0  0  0
  9 10  2  0  0  0  0
  9 18  1  0  0  0  0
 10 11  1  0  0  0  0
 10 12  1  0  0  0  0
 12 13  2  0  0  0  0
 12 17  1  0  0  0  0
 13 14  1  0  0  0  0
 13 31  1  0  0  0  0
 14 15  2  0  0  0  0
 14 32  1  0  0  0  0
 15 16  1  0  0  0  0
 16 17  2  0  0  0  0
 16 33  1  0  0  0  0
 17 34  1  0  0  0  0
 18 19  2  0  0  0  0
 18 23  1  0  0  0  0
 19 20  1  0  0  0  0
 19 35  1  0  0  0  0
 20 21  2  0  0  0  0
 20 24  1  0  0  0  0
 21 22  1  0  0  0  0
 21 36  1  0  0  0  0
 22 23  2  0  0  0  0
 22 37  1  0  0  0  0
 23 38  1  0  0  0  0
 24 39  1  0  0  0  0
M  END
