4o91_ligand
 OpenBabel08222323353D

 71 75  0  0  1  0  0  0  0  0999 V2000
  -11.0070  -50.4670  -11.9500 C   0  0  0  0  0  0  0  0  0  0  0  0
   -9.7960  -50.2680  -12.8730 C   0  0  0  0  0  0  0  0  0  0  0  0
   -8.4950  -50.4150  -12.3750 C   0  0  0  0  0  0  0  0  0  0  0  0
   -7.4000  -50.2240  -13.2300 C   0  0  0  0  0  0  0  0  0  0  0  0
   -7.6210  -49.9100  -14.5790 C   0  0  0  0  0  0  0  0  0  0  0  0
   -8.9160  -49.7640  -15.0800 C   0  0  0  0  0  0  0  0  0  0  0  0
   -9.9940  -49.9330  -14.2270 C   0  0  0  0  0  0  0  0  0  0  0  0
  -11.2840  -49.8240  -14.7660 O   0  0  0  0  0  0  0  0  0  0  0  0
  -11.8780  -48.5430  -14.6910 C   0  0  0  0  0  0  0  0  0  0  0  0
  -11.2370  -47.4020  -14.1230 C   0  0  0  0  0  0  0  0  0  0  0  0
  -11.9600  -46.1940  -14.1170 C   0  0  0  0  0  0  0  0  0  0  0  0
  -13.1990  -46.0880  -14.6200 N   0  0  0  0  0  0  0  0  0  0  0  0
  -13.8230  -47.1760  -15.1660 C   0  0  0  0  0  0  0  0  0  0  0  0
  -13.2060  -48.4110  -15.2240 C   0  0  0  0  0  0  0  0  0  0  0  0
  -14.1440  -49.3020  -15.8500 C   0  0  0  0  0  0  0  0  0  0  0  0
  -15.2900  -48.5500  -16.1460 C   0  0  0  0  0  0  0  0  0  0  0  0
  -15.0760  -47.3000  -15.7300 N   0  0  0  0  0  0  0  0  0  0  0  0
   -6.4630  -49.6730  -15.5480 C   0  0  0  0  0  0  0  0  0  0  0  0
   -5.1210  -49.8410  -15.0740 N   0  0  0  0  0  0  0  0  0  0  0  0
   -3.9220  -49.6120  -15.8510 C   0  0  0  0  0  0  0  0  0  0  0  0
   -2.8130  -50.4650  -15.6790 C   0  0  0  0  0  0  0  0  0  0  0  0
   -1.6260  -50.2380  -16.3890 C   0  0  0  0  0  0  0  0  0  0  0  0
   -1.5170  -49.1550  -17.2720 C   0  0  0  0  0  0  0  0  0  0  0  0
   -2.6400  -48.2870  -17.4340 C   0  0  0  0  0  0  0  0  0  0  0  0
   -2.5810  -47.0720  -18.3940 C   0  0  0  0  0  0  0  0  0  0  0  0
   -3.7870  -46.5240  -18.4510 F   0  0  0  0  0  0  0  0  0  0  0  0
   -1.6950  -46.1660  -17.9630 F   0  0  0  0  0  0  0  0  0  0  0  0
   -2.2290  -47.4830  -19.6320 F   0  0  0  0  0  0  0  0  0  0  0  0
   -3.8150  -48.5040  -16.7200 C   0  0  0  0  0  0  0  0  0  0  0  0
   -0.1950  -48.9280  -18.0570 C   0  0  0  0  0  0  0  0  0  0  0  0
    0.3930  -50.0750  -18.3170 N   0  3  2  0  0  0  0  0  0  0  0  0
    1.7360  -49.8930  -18.4250 C   0  0  0  0  0  0  0  0  0  0  0  0
    2.4800  -51.1620  -18.8400 C   0  0  0  0  0  0  0  0  0  0  0  0
    1.9020  -51.8220  -19.8940 N   0  3  2  0  0  0  0  0  0  0  0  0
    0.5640  -51.9470  -19.7780 C   0  0  0  0  0  0  0  0  0  0  0  0
   -0.1390  -50.6280  -19.4350 C   0  0  0  0  0  0  0  0  0  0  0  0
    2.4050  -53.0060  -20.0040 C   0  0  0  0  0  0  0  0  0  0  0  0
    3.7410  -53.0140  -20.7940 C   0  0  0  0  0  0  0  0  0  0  0  0
   -6.7090  -49.3310  -16.6780 O   0  0  0  0  0  0  0  0  0  0  0  0
  -10.6588  -50.7217  -10.9381 H   0  0  0  0  0  0  0  0  0  0  0  0
  -11.6338  -51.2832  -12.3383 H   0  0  0  0  0  0  0  0  0  0  0  0
  -11.5958  -49.5386  -11.9123 H   0  0  0  0  0  0  0  0  0  0  0  0
   -8.3356  -50.6749  -11.3348 H   0  0  0  0  0  0  0  0  0  0  0  0
   -6.3889  -50.3185  -12.8506 H   0  0  0  0  0  0  0  0  0  0  0  0
   -9.0758  -49.5212  -16.1243 H   0  0  0  0  0  0  0  0  0  0  0  0
  -10.2353  -47.4626  -13.7132 H   0  0  0  0  0  0  0  0  0  0  0  0
  -11.4962  -45.3131  -13.6881 H   0  0  0  0  0  0  0  0  0  0  0  0
  -13.9933  -50.3608  -16.0556 H   0  0  0  0  0  0  0  0  0  0  0  0
  -16.1932  -48.9199  -16.6290 H   0  0  0  0  0  0  0  0  0  0  0  0
  -15.7554  -46.5309  -15.8182 H   0  0  0  0  0  0  0  0  0  0  0  0
   -5.0034  -50.1415  -14.1275 H   0  0  0  0  0  0  0  0  0  0  0  0
   -2.8786  -51.3019  -14.9932 H   0  0  0  0  0  0  0  0  0  0  0  0
   -0.7837  -50.9069  -16.2538 H   0  0  0  0  0  0  0  0  0  0  0  0
   -4.6495  -47.8212  -16.8312 H   0  0  0  0  0  0  0  0  0  0  0  0
    0.4809  -48.3042  -17.4537 H   0  0  0  0  0  0  0  0  0  0  0  0
   -0.4204  -48.4149  -19.0035 H   0  0  0  0  0  0  0  0  0  0  0  0
    0.2233  -50.7030  -17.5470 H   0  0  0  0  0  0  0  0  0  0  0  0
    2.1243  -49.5621  -17.4504 H   0  0  0  0  0  0  0  0  0  0  0  0
    1.9246  -49.1141  -19.1785 H   0  0  0  0  0  0  0  0  0  0  0  0
    2.5099  -51.8444  -17.9778 H   0  0  0  0  0  0  0  0  0  0  0  0
    3.5059  -50.8854  -19.1245 H   0  0  0  0  0  0  0  0  0  0  0  0
    2.1007  -51.3011  -20.7338 H   0  0  0  0  0  0  0  0  0  0  0  0
    0.3487  -52.6750  -18.9820 H   0  0  0  0  0  0  0  0  0  0  0  0
    0.1636  -52.3184  -20.7328 H   0  0  0  0  0  0  0  0  0  0  0  0
   -0.0211  -49.9276  -20.2749 H   0  0  0  0  0  0  0  0  0  0  0  0
   -1.2086  -50.8226  -19.2672 H   0  0  0  0  0  0  0  0  0  0  0  0
    1.6821  -53.6490  -20.5273 H   0  0  0  0  0  0  0  0  0  0  0  0
    2.5891  -53.4060  -18.9960 H   0  0  0  0  0  0  0  0  0  0  0  0
    4.1234  -54.0434  -20.8571 H   0  0  0  0  0  0  0  0  0  0  0  0
    4.4767  -52.3807  -20.2767 H   0  0  0  0  0  0  0  0  0  0  0  0
    3.5697  -52.6237  -21.8081 H   0  0  0  0  0  0  0  0  0  0  0  0
  1  2  1  0  0  0  0
  1 40  1  0  0  0  0
  1 41  1  0  0  0  0
  1 42  1  0  0  0  0
  2  3  2  0  0  0  0
  2  7  1  0  0  0  0
  3  4  1  0  0  0  0
  3 43  1  0  0  0  0
  4  5  2  0  0  0  0
  4 44  1  0  0  0  0
  5  6  1  0  0  0  0
  5 18  1  0  0  0  0
  6  7  2  0  0  0  0
  6 45  1  0  0  0  0
  7  8  1  0  0  0  0
  8  9  1  0  0  0  0
  9 10  2  0  0  0  0
  9 14  1  0  0  0  0
 10 11  1  0  0  0  0
 10 46  1  0  0  0  0
 11 12  2  0  0  0  0
 11 47  1  0  0  0  0
 12 13  1  0  0  0  0
 13 14  2  0  0  0  0
 13 17  1  0  0  0  0
 14 15  1  0  0  0  0
 15 16  2  0  0  0  0
 15 48  1  0  0  0  0
 16 17  1  0  0  0  0
 16 49  1  0  0  0  0
 17 50  1  0  0  0  0
 18 19  1  0  0  0  0
 18 39  2  0  0  0  0
 19 20  1  0  0  0  0
 19 51  1  0  0  0  0
 20 21  2  0  0  0  0
 20 29  1  0  0  0  0
 21 22  1  0  0  0  0
 21 52  1  0  0  0  0
 22 23  2  0  0  0  0
 22 53  1  0  0  0  0
 23 24  1  0  0  0  0
 23 30  1  0  0  0  0
 24 25  1  0  0  0  0
 24 29  2  0  0  0  0
 25 26  1  0  0  0  0
 25 27  1  0  0  0  0
 25 28  1  0  0  0  0
 29 54  1  0  0  0  0
 30 31  1  0  0  0  0
 30 55  1  0  0  0  0
 30 56  1  0  0  0  0
 31 32  1  0  0  0  0
 31 36  1  0  0  0  0
 31 57  1  1  0  0  0
 32 33  1  0  0  0  0
 32 58  1  0  0  0  0
 32 59  1  0  0  0  0
 33 34  1  0  0  0  0
 33 60  1  0  0  0  0
 33 61  1  0  0  0  0
 34 35  1  0  0  0  0
 34 37  1  0  0  0  0
 34 62  1  6  0  0  0
 35 36  1  0  0  0  0
 35 63  1  0  0  0  0
 35 64  1  0  0  0  0
 36 65  1  0  0  0  0
 36 66  1  0  0  0  0
 37 38  1  0  0  0  0
 37 67  1  0  0  0  0
 37 68  1  0  0  0  0
 38 69  1  0  0  0  0
 38 70  1  0  0  0  0
 38 71  1  0  0  0  0
M  CHG  2  31   1  34   1
M  END
