4ob0_ligand
 OpenBabel08222323353D

 18 18  0  0  0  0  0  0  0  0999 V2000
   36.2640   -9.8590   14.2830 B   0  0  0  0  0  0  0  0  0  0  0  0
   37.7480   -9.9470   14.0550 O   0  0  0  0  0  0  0  0  0  0  0  0
   35.9290   -9.8560   15.7450 O   0  0  0  0  0  0  0  0  0  0  0  0
   34.7280   -9.8810   10.8580 C   0  0  0  0  0  0  0  0  0  0  0  0
   33.5360   -9.3010   11.0560 C   0  0  0  0  0  0  0  0  0  0  0  0
   33.1900   -8.9160   12.2920 C   0  0  0  0  0  0  0  0  0  0  0  0
   34.0230   -9.0550   13.3710 C   0  0  0  0  0  0  0  0  0  0  0  0
   35.2440   -9.6590   13.1560 C   0  0  0  0  0  0  0  0  0  0  0  0
   35.5960  -10.0600   11.8970 C   0  0  0  0  0  0  0  0  0  0  0  0
   38.1742   -9.2003   14.4593 H   0  0  0  0  0  0  0  0  0  0  0  0
   38.1742   -9.2004   14.4592 H   0  0  0  0  0  0  0  0  0  0  0  0
   34.9868   -9.7997   15.8527 H   0  0  0  0  0  0  0  0  0  0  0  0
   34.9868   -9.7997   15.8527 H   0  0  0  0  0  0  0  0  0  0  0  0
   35.0057  -10.2112    9.8636 H   0  0  0  0  0  0  0  0  0  0  0  0
   32.8584   -9.1449   10.2244 H   0  0  0  0  0  0  0  0  0  0  0  0
   32.2109   -8.4765   12.4445 H   0  0  0  0  0  0  0  0  0  0  0  0
   33.7336   -8.7040   14.3549 H   0  0  0  0  0  0  0  0  0  0  0  0
   36.5625  -10.5193   11.7239 H   0  0  0  0  0  0  0  0  0  0  0  0
  1  2  1  0  0  0  0
  1  3  1  0  0  0  0
  2 10  1  0  0  0  0
  2 11  1  0  0  0  0
  3 12  1  0  0  0  0
  3 13  1  0  0  0  0
  4  9  1  0  0  0  0
  4 14  1  0  0  0  0
  5  4  2  0  0  0  0
  5 15  1  0  0  0  0
  6  5  1  0  0  0  0
  6 16  1  0  0  0  0
  7  6  2  0  0  0  0
  7  8  1  0  0  0  0
  7 17  1  0  0  0  0
  8  1  1  0  0  0  0
  8  9  2  0  0  0  0
  9 18  1  0  0  0  0
M  END
