4oba_ligand
 OpenBabel08222323353D

 67 70  0  0  1  0  0  0  0  0999 V2000
   15.8350    2.9330  -37.6230 C   0  0  0  0  0  0  0  0  0  0  0  0
   16.7780    3.9400  -37.8260 C   0  0  0  0  0  0  0  0  0  0  0  0
   16.3980    5.2620  -38.8670 Cl  0  0  0  0  0  0  0  0  0  0  0  0
   18.0210    3.8820  -37.2020 C   0  0  0  0  0  0  0  0  0  0  0  0
   18.3250    2.8140  -36.3590 C   0  0  0  0  0  0  0  0  0  0  0  0
   17.3800    1.8070  -36.1510 C   0  0  0  0  0  0  0  0  0  0  0  0
   16.1330    1.8630  -36.7810 C   0  0  0  0  0  0  0  0  0  0  0  0
   15.0930    0.7530  -36.5510 C   0  0  1  0  0  0  0  0  0  0  0  0
   15.7240   -0.5360  -36.6160 O   0  0  0  0  0  0  0  0  0  0  0  0
   14.7780   -1.6420  -36.6090 C   0  0  2  0  0  0  0  0  0  0  0  0
   14.1710   -1.8300  -38.0170 C   0  0  0  0  0  0  0  0  0  0  0  0
   15.2300   -2.2980  -39.0260 C   0  0  0  0  0  0  0  0  0  0  0  0
   15.4340   -1.5790  -40.0310 O   0  5  0  0  0  0  0  0  0  0  0  0
   15.8230   -3.3650  -38.7740 O   0  0  0  0  0  0  0  0  0  0  0  0
   13.7120   -1.4680  -35.5020 C   0  0  0  0  0  0  0  0  0  0  0  0
   13.0090   -2.4360  -35.2090 O   0  0  0  0  0  0  0  0  0  0  0  0
   13.5390   -0.2210  -34.8350 N   0  0  0  0  0  0  0  0  0  0  0  0
   12.5590   -0.0820  -33.7190 C   0  0  1  0  0  0  0  0  0  0  0  0
   11.1210   -0.3570  -34.1820 C   0  0  0  0  0  0  0  0  0  0  0  0
   10.2540    0.8780  -34.4020 C   0  0  0  0  0  0  0  0  0  0  0  0
   10.0510    0.0130  -33.1640 C   0  0  0  0  0  0  0  0  0  0  0  0
   12.9350   -0.9770  -32.5250 C   0  0  0  0  0  0  0  0  0  0  0  0
   14.6770   -0.7710  -32.0070 S   0  0  0  0  0  0  0  0  0  0  0  0
   15.5430   -1.5320  -32.9710 O   0  0  0  0  0  0  0  0  0  0  0  0
   15.0450    0.6860  -31.9820 O   0  0  0  0  0  0  0  0  0  0  0  0
   14.9610   -1.4390  -30.3300 C   0  0  0  0  0  0  0  0  0  0  0  0
   14.4690   -2.8850  -30.2690 C   0  0  0  0  0  0  0  0  0  0  0  0
   16.4600   -1.3610  -30.0170 C   0  0  0  0  0  0  0  0  0  0  0  0
   14.2070   -0.5700  -29.3290 C   0  0  0  0  0  0  0  0  0  0  0  0
   14.4360    0.9170  -35.1660 C   0  0  2  0  0  0  0  0  0  0  0  0
   13.7200    2.2730  -35.0960 C   0  0  0  0  0  0  0  0  0  0  0  0
   14.1600    3.2120  -34.1660 C   0  0  0  0  0  0  0  0  0  0  0  0
   13.5360    4.4530  -34.0880 C   0  0  0  0  0  0  0  0  0  0  0  0
   12.4790    4.7350  -34.9480 C   0  0  0  0  0  0  0  0  0  0  0  0
   11.6990    6.2630  -34.8450 Cl  0  0  0  0  0  0  0  0  0  0  0  0
   12.0330    3.8030  -35.8800 C   0  0  0  0  0  0  0  0  0  0  0  0
   12.6640    2.5670  -35.9640 C   0  0  0  0  0  0  0  0  0  0  0  0
   14.8724    2.9823  -38.1189 H   0  0  0  0  0  0  0  0  0  0  0  0
   18.7509    4.6654  -37.3711 H   0  0  0  0  0  0  0  0  0  0  0  0
   19.2900    2.7655  -35.8675 H   0  0  0  0  0  0  0  0  0  0  0  0
   17.6150    0.9757  -35.4962 H   0  0  0  0  0  0  0  0  0  0  0  0
   14.3194    0.8190  -37.3302 H   0  0  0  0  0  0  0  0  0  0  0  0
   15.3395   -2.5577  -36.3719 H   0  0  0  0  0  0  0  0  0  0  0  0
   13.7518   -0.8715  -38.3569 H   0  0  0  0  0  0  0  0  0  0  0  0
   13.3702   -2.5822  -37.9640 H   0  0  0  0  0  0  0  0  0  0  0  0
   12.6000    0.9621  -33.3753 H   0  0  0  0  0  0  0  0  0  0  0  0
   11.0478   -1.2481  -34.8228 H   0  0  0  0  0  0  0  0  0  0  0  0
    9.4965    0.8835  -35.1996 H   0  0  0  0  0  0  0  0  0  0  0  0
   10.6923    1.8823  -34.3056 H   0  0  0  0  0  0  0  0  0  0  0  0
   10.3423    0.3933  -32.1738 H   0  0  0  0  0  0  0  0  0  0  0  0
    9.1464   -0.6054  -33.0677 H   0  0  0  0  0  0  0  0  0  0  0  0
   12.7745   -2.0276  -32.8087 H   0  0  0  0  0  0  0  0  0  0  0  0
   12.2834   -0.7228  -31.6760 H   0  0  0  0  0  0  0  0  0  0  0  0
   14.6395   -3.2880  -29.2598 H   0  0  0  0  0  0  0  0  0  0  0  0
   15.0195   -3.4910  -31.0036 H   0  0  0  0  0  0  0  0  0  0  0  0
   13.3939   -2.9166  -30.4995 H   0  0  0  0  0  0  0  0  0  0  0  0
   16.6453   -1.7605  -29.0090 H   0  0  0  0  0  0  0  0  0  0  0  0
   16.7900   -0.3127  -30.0623 H   0  0  0  0  0  0  0  0  0  0  0  0
   17.0201   -1.9540  -30.7550 H   0  0  0  0  0  0  0  0  0  0  0  0
   14.3672   -0.9585  -28.3125 H   0  0  0  0  0  0  0  0  0  0  0  0
   13.1325   -0.5887  -29.5635 H   0  0  0  0  0  0  0  0  0  0  0  0
   14.5775    0.4640  -29.3889 H   0  0  0  0  0  0  0  0  0  0  0  0
   15.2386    0.9255  -34.4138 H   0  0  0  0  0  0  0  0  0  0  0  0
   14.9862    2.9765  -33.5050 H   0  0  0  0  0  0  0  0  0  0  0  0
   13.8688    5.1906  -33.3667 H   0  0  0  0  0  0  0  0  0  0  0  0
   11.2015    4.0384  -36.5344 H   0  0  0  0  0  0  0  0  0  0  0  0
   12.3398    1.8369  -36.6967 H   0  0  0  0  0  0  0  0  0  0  0  0
  1  2  2  0  0  0  0
  1  7  1  0  0  0  0
  1 38  1  0  0  0  0
  2  3  1  0  0  0  0
  2  4  1  0  0  0  0
  4  5  2  0  0  0  0
  4 39  1  0  0  0  0
  5  6  1  0  0  0  0
  5 40  1  0  0  0  0
  6  7  2  0  0  0  0
  6 41  1  0  0  0  0
  7  8  1  0  0  0  0
  8  9  1  0  0  0  0
  8 30  1  0  0  0  0
  8 42  1  6  0  0  0
  9 10  1  0  0  0  0
 10 11  1  0  0  0  0
 10 15  1  0  0  0  0
 10 43  1  1  0  0  0
 11 12  1  0  0  0  0
 11 44  1  0  0  0  0
 11 45  1  0  0  0  0
 12 13  1  0  0  0  0
 12 14  2  0  0  0  0
 15 16  2  0  0  0  0
 15 17  1  0  0  0  0
 17 18  1  0  0  0  0
 17 30  1  0  0  0  0
 18 19  1  0  0  0  0
 18 22  1  0  0  0  0
 18 46  1  1  0  0  0
 19 20  1  0  0  0  0
 19 21  1  0  0  0  0
 19 47  1  0  0  0  0
 20 21  1  0  0  0  0
 20 48  1  0  0  0  0
 20 49  1  0  0  0  0
 21 50  1  0  0  0  0
 21 51  1  0  0  0  0
 22 23  1  0  0  0  0
 22 52  1  0  0  0  0
 22 53  1  0  0  0  0
 23 24  2  0  0  0  0
 23 25  2  0  0  0  0
 23 26  1  0  0  0  0
 26 27  1  0  0  0  0
 26 28  1  0  0  0  0
 26 29  1  0  0  0  0
 27 54  1  0  0  0  0
 27 55  1  0  0  0  0
 27 56  1  0  0  0  0
 28 57  1  0  0  0  0
 28 58  1  0  0  0  0
 28 59  1  0  0  0  0
 29 60  1  0  0  0  0
 29 61  1  0  0  0  0
 29 62  1  0  0  0  0
 30 31  1  0  0  0  0
 30 63  1  1  0  0  0
 31 32  2  0  0  0  0
 31 37  1  0  0  0  0
 32 33  1  0  0  0  0
 32 64  1  0  0  0  0
 33 34  2  0  0  0  0
 33 65  1  0  0  0  0
 34 35  1  0  0  0  0
 34 36  1  0  0  0  0
 36 37  2  0  0  0  0
 36 66  1  0  0  0  0
 37 67  1  0  0  0  0
M  CHG  1  13  -1
M  END
