4oc4_ligand
 OpenBabel08222323353D

 56 57  0  0  1  0  0  0  0  0999 V2000
   23.2960   50.7440   46.6560 C   0  0  0  0  0  0  0  0  0  0  0  0
   23.4510   50.9390   48.0460 C   0  0  0  0  0  0  0  0  0  0  0  0
   23.5090   49.9010   48.9860 C   0  0  0  0  0  0  0  0  0  0  0  0
   23.6950   50.1830   51.1830 I   0  0  0  0  0  0  0  0  0  0  0  0
   23.4480   48.6220   48.4080 C   0  0  0  0  0  0  0  0  0  0  0  0
   23.3190   48.3940   47.0170 C   0  0  0  0  0  0  0  0  0  0  0  0
   23.2590   49.4490   46.1110 C   0  0  0  0  0  0  0  0  0  0  0  0
   23.0470   49.2240   44.5880 C   0  0  0  0  0  0  0  0  0  0  0  0
   22.2670   49.9660   43.9810 O   0  0  0  0  0  0  0  0  0  0  0  0
   23.5680   48.1400   44.0410 N   0  0  0  0  0  0  0  0  0  0  0  0
   23.3400   47.7820   42.6430 C   0  0  0  0  0  0  0  0  0  0  0  0
   23.2760   46.2680   42.5080 C   0  0  0  0  0  0  0  0  0  0  0  0
   22.3470   45.4970   43.5300 C   0  0  0  0  0  0  0  0  0  0  0  0
   20.8530   45.8460   43.3020 C   0  0  0  0  0  0  0  0  0  0  0  0
   19.9190   45.1240   44.3140 C   0  0  1  0  0  0  0  0  0  0  0  0
   20.0960   45.7000   45.7190 C   0  0  0  0  0  0  0  0  0  0  0  0
   20.7630   44.9740   46.4720 O   0  5  0  0  0  0  0  0  0  0  0  0
   19.5980   46.8240   45.9680 O   0  0  0  0  0  0  0  0  0  0  0  0
   18.5700   45.4360   43.8590 N   0  0  0  0  0  0  0  0  0  0  0  0
   17.9360   44.7080   42.9610 C   0  0  0  0  0  0  0  0  0  0  0  0
   18.4020   43.6300   42.5120 O   0  0  0  0  0  0  0  0  0  0  0  0
   16.7060   45.1020   42.6110 N   0  0  0  0  0  0  0  0  0  0  0  0
   16.1230   44.4280   41.4400 C   0  0  2  0  0  0  0  0  0  0  0  0
   17.0560   44.6900   40.2200 C   0  0  0  0  0  0  0  0  0  0  0  0
   16.9630   43.9100   39.2290 O   0  5  0  0  0  0  0  0  0  0  0  0
   17.9010   45.6100   40.2800 O   0  0  0  0  0  0  0  0  0  0  0  0
   14.7280   44.9290   41.0220 C   0  0  0  0  0  0  0  0  0  0  0  0
   14.5940   46.4220   40.7360 C   0  0  0  0  0  0  0  0  0  0  0  0
   15.1310   47.0210   39.5950 C   0  0  0  0  0  0  0  0  0  0  0  0
   14.9460   48.3780   39.3410 C   0  0  0  0  0  0  0  0  0  0  0  0
   14.2200   49.1220   40.1640 N   0  0  0  0  0  0  0  0  0  0  0  0
   13.6920   48.5790   41.2670 C   0  0  0  0  0  0  0  0  0  0  0  0
   13.8640   47.2310   41.6050 C   0  0  0  0  0  0  0  0  0  0  0  0
   23.2045   51.6033   46.0016 H   0  0  0  0  0  0  0  0  0  0  0  0
   23.5302   51.9572   48.4094 H   0  0  0  0  0  0  0  0  0  0  0  0
   23.5028   47.7611   49.0644 H   0  0  0  0  0  0  0  0  0  0  0  0
   23.2658   47.3757   46.6493 H   0  0  0  0  0  0  0  0  0  0  0  0
   24.1391   47.5429   44.6043 H   0  0  0  0  0  0  0  0  0  0  0  0
   24.1643   48.1700   42.0266 H   0  0  0  0  0  0  0  0  0  0  0  0
   22.3901   48.2203   42.3030 H   0  0  0  0  0  0  0  0  0  0  0  0
   24.2980   45.8800   42.6301 H   0  0  0  0  0  0  0  0  0  0  0  0
   22.9157   46.0397   41.4941 H   0  0  0  0  0  0  0  0  0  0  0  0
   22.6291   45.7793   44.5550 H   0  0  0  0  0  0  0  0  0  0  0  0
   22.4871   44.4142   43.3961 H   0  0  0  0  0  0  0  0  0  0  0  0
   20.5706   45.5447   42.2825 H   0  0  0  0  0  0  0  0  0  0  0  0
   20.7223   46.9326   43.4127 H   0  0  0  0  0  0  0  0  0  0  0  0
   20.1037   44.0396   44.3187 H   0  0  0  0  0  0  0  0  0  0  0  0
   18.1066   46.2344   44.2434 H   0  0  0  0  0  0  0  0  0  0  0  0
   16.2129   45.8114   43.1146 H   0  0  0  0  0  0  0  0  0  0  0  0
   16.0646   43.3502   41.6518 H   0  0  0  0  0  0  0  0  0  0  0  0
   14.0277   44.6807   41.8331 H   0  0  0  0  0  0  0  0  0  0  0  0
   14.4389   44.3874   40.1093 H   0  0  0  0  0  0  0  0  0  0  0  0
   15.7011   46.4204   38.8955 H   0  0  0  0  0  0  0  0  0  0  0  0
   15.3984   48.8286   38.4650 H   0  0  0  0  0  0  0  0  0  0  0  0
   13.1065   49.2091   41.9267 H   0  0  0  0  0  0  0  0  0  0  0  0
   13.4408   46.8276   42.5178 H   0  0  0  0  0  0  0  0  0  0  0  0
  1  2  2  0  0  0  0
  1  7  1  0  0  0  0
  1 34  1  0  0  0  0
  2  3  1  0  0  0  0
  2 35  1  0  0  0  0
  3  4  1  0  0  0  0
  3  5  2  0  0  0  0
  5  6  1  0  0  0  0
  5 36  1  0  0  0  0
  6  7  2  0  0  0  0
  6 37  1  0  0  0  0
  7  8  1  0  0  0  0
  8  9  2  0  0  0  0
  8 10  1  0  0  0  0
 10 11  1  0  0  0  0
 10 38  1  0  0  0  0
 11 12  1  0  0  0  0
 11 39  1  0  0  0  0
 11 40  1  0  0  0  0
 12 13  1  0  0  0  0
 12 41  1  0  0  0  0
 12 42  1  0  0  0  0
 13 14  1  0  0  0  0
 13 43  1  0  0  0  0
 13 44  1  0  0  0  0
 14 15  1  0  0  0  0
 14 45  1  0  0  0  0
 14 46  1  0  0  0  0
 15 16  1  0  0  0  0
 15 19  1  0  0  0  0
 15 47  1  6  0  0  0
 16 17  1  0  0  0  0
 16 18  2  0  0  0  0
 19 20  1  0  0  0  0
 19 48  1  0  0  0  0
 20 21  2  0  0  0  0
 20 22  1  0  0  0  0
 22 23  1  0  0  0  0
 22 49  1  0  0  0  0
 23 24  1  0  0  0  0
 23 27  1  0  0  0  0
 23 50  1  1  0  0  0
 24 25  1  0  0  0  0
 24 26  2  0  0  0  0
 27 28  1  0  0  0  0
 27 51  1  0  0  0  0
 27 52  1  0  0  0  0
 28 29  2  0  0  0  0
 28 33  1  0  0  0  0
 29 30  1  0  0  0  0
 29 53  1  0  0  0  0
 30 31  2  0  0  0  0
 30 54  1  0  0  0  0
 31 32  1  0  0  0  0
 32 33  2  0  0  0  0
 32 55  1  0  0  0  0
 33 56  1  0  0  0  0
M  CHG  2  17  -1  25  -1
M  END
