4ocp_ligand
 OpenBabel08222323353D

 39 41  0  0  1  0  0  0  0  0999 V2000
  -32.8010    8.9520  -14.9730 P   0  0  0  0  0  0  0  0  0  0  0  0
  -31.6730    8.7800  -15.9610 O   0  0  0  0  0  1  0  0  0  0  0  0
  -34.1290    9.2720  -15.6010 O   0  0  0  0  0  1  0  0  0  0  0  0
  -32.9350    7.9090  -13.8930 O   0  0  0  0  0  0  0  0  0  0  0  0
  -31.0380   10.7930  -13.5510 P   0  0  2  0  0  0  0  0  0  0  0  0
  -29.8300   10.3670  -14.3490 O   0  0  0  0  0  1  0  0  0  0  0  0
  -31.0630   10.5530  -12.0620 O   0  0  0  0  0  0  0  0  0  0  0  0
  -32.4540   10.2950  -14.1380 O   0  0  0  0  0  0  0  0  0  0  0  0
  -31.2150   12.3790  -13.7980 O   0  0  0  0  0  0  0  0  0  0  0  0
  -31.4150   12.8860  -15.1140 C   0  0  0  0  0  0  0  0  0  0  0  0
  -30.3820   13.9640  -15.3600 C   0  0  1  0  0  0  0  0  0  0  0  0
  -30.5420   14.9850  -14.3710 O   0  0  0  0  0  0  0  0  0  0  0  0
  -28.9490   13.4830  -15.2070 C   0  0  1  0  0  0  0  0  0  0  0  0
  -28.4410   12.8350  -16.3870 O   0  0  0  0  0  0  0  0  0  0  0  0
  -28.2370   14.7690  -14.8290 C   0  0  1  0  0  0  0  0  0  0  0  0
  -27.9810   15.5790  -15.9760 O   0  0  0  0  0  0  0  0  0  0  0  0
  -29.2580   15.5050  -13.9910 C   0  0  2  0  0  0  0  0  0  0  0  0
  -29.1170   15.3880  -12.5170 N   0  0  0  0  0  0  0  0  0  0  0  0
  -29.6110   14.4130  -11.7240 C   0  0  0  0  0  0  0  0  0  0  0  0
  -29.3170   14.6500  -10.4200 N   0  0  0  0  0  0  0  0  0  0  0  0
  -28.6370   15.8080  -10.3780 C   0  0  0  0  0  0  0  0  0  0  0  0
  -28.0550   16.6560   -9.3210 C   0  0  0  0  0  0  0  0  0  0  0  0
  -28.1520   16.2580   -8.0370 N   0  0  0  0  0  0  0  0  0  0  0  0
  -27.4270   17.8080   -9.6790 N   0  0  0  0  0  0  0  0  0  0  0  0
  -27.3560   18.1920  -10.9700 C   0  0  0  0  0  0  0  0  0  0  0  0
  -27.8740   17.4620  -11.9860 N   0  0  0  0  0  0  0  0  0  0  0  0
  -28.5190   16.2930  -11.7580 C   0  0  0  0  0  0  0  0  0  0  0  0
  -32.4260   13.3106  -15.2012 H   0  0  0  0  0  0  0  0  0  0  0  0
  -31.2926   12.0767  -15.8488 H   0  0  0  0  0  0  0  0  0  0  0  0
  -30.5279   14.3751  -16.3698 H   0  0  0  0  0  0  0  0  0  0  0  0
  -28.8789   12.7628  -14.3785 H   0  0  0  0  0  0  0  0  0  0  0  0
  -28.4642   13.4437  -17.1160 H   0  0  0  0  0  0  0  0  0  0  0  0
  -27.3072   14.5676  -14.2769 H   0  0  0  0  0  0  0  0  0  0  0  0
  -27.4334   15.0986  -16.5857 H   0  0  0  0  0  0  0  0  0  0  0  0
  -29.2013   16.5734  -14.2464 H   0  0  0  0  0  0  0  0  0  0  0  0
  -30.1711   13.5508  -12.0830 H   0  0  0  0  0  0  0  0  0  0  0  0
  -27.7511   16.8382   -7.2863 H   0  0  0  0  0  0  0  0  0  0  0  0
  -28.6270   15.3736   -7.8064 H   0  0  0  0  0  0  0  0  0  0  0  0
  -26.8617   19.1277  -11.2049 H   0  0  0  0  0  0  0  0  0  0  0  0
  1  2  1  0  0  0  0
  1  3  1  0  0  0  0
  1  4  2  0  0  0  0
  5  6  1  6  0  0  0
  5  7  2  0  0  0  0
  5  8  1  0  0  0  0
  5  9  1  0  0  0  0
  8  1  1  0  0  0  0
  9 10  1  0  0  0  0
 10 11  1  0  0  0  0
 10 28  1  0  0  0  0
 10 29  1  0  0  0  0
 11 12  1  0  0  0  0
 11 13  1  0  0  0  0
 11 30  1  6  0  0  0
 12 17  1  0  0  0  0
 13 14  1  0  0  0  0
 13 15  1  0  0  0  0
 13 31  1  1  0  0  0
 14 32  1  0  0  0  0
 15 16  1  0  0  0  0
 15 17  1  0  0  0  0
 15 33  1  1  0  0  0
 16 34  1  0  0  0  0
 17 18  1  0  0  0  0
 17 35  1  6  0  0  0
 18 19  1  0  0  0  0
 18 27  1  0  0  0  0
 19 20  2  0  0  0  0
 19 36  1  0  0  0  0
 20 21  1  0  0  0  0
 21 22  2  0  0  0  0
 21 27  1  0  0  0  0
 22 23  1  0  0  0  0
 22 24  1  0  0  0  0
 23 37  1  0  0  0  0
 23 38  1  0  0  0  0
 24 25  2  0  0  0  0
 25 26  1  0  0  0  0
 25 39  1  0  0  0  0
 26 27  2  0  0  0  0
M  END
