4od7_ligand
 OpenBabel08222323353D

105107  0  0  1  0  0  0  0  0999 V2000
  -32.9330   34.6110    6.4390 C   0  0  0  0  0  0  0  0  0  0  0  0
  -34.1400   34.6950    6.3080 O   0  0  0  0  0  0  0  0  0  0  0  0
  -32.1240   35.8470    6.3550 C   0  0  0  0  0  0  0  0  0  0  0  0
  -32.1900   33.3200    6.7140 N   0  0  0  0  0  0  0  0  0  0  0  0
  -32.9940   32.0930    6.7430 C   0  0  2  0  0  0  0  0  0  0  0  0
  -33.9920   32.0320    7.9020 C   0  0  0  0  0  0  0  0  0  0  0  0
  -34.7970   31.1370    7.9580 O   0  0  0  0  0  0  0  0  0  0  0  0
  -31.9300   30.9970    6.7990 C   0  0  0  0  0  0  0  0  0  0  0  0
  -30.7040   31.6520    7.2820 C   0  0  0  0  0  0  0  0  0  0  0  0
  -30.7570   33.0410    6.8600 C   0  0  0  0  0  0  0  0  0  0  0  0
  -33.9550   33.0320    8.7800 N   0  0  0  0  0  0  0  0  0  0  0  0
  -34.9100   33.1910    9.9010 C   0  0  2  0  0  0  0  0  0  0  0  0
  -36.3370   33.4320    9.4700 C   0  0  0  0  0  0  0  0  0  0  0  0
  -37.2600   33.3550   10.3000 O   0  0  0  0  0  0  0  0  0  0  0  0
  -34.3900   34.3100   10.8320 C   0  0  0  0  0  0  0  0  0  0  0  0
  -33.9200   35.5870   10.1700 C   0  0  0  0  0  0  0  0  0  0  0  0
  -34.7130   36.6040    9.7800 C   0  0  0  0  0  0  0  0  0  0  0  0
  -32.5680   36.0080    9.8990 C   0  0  0  0  0  0  0  0  0  0  0  0
  -33.9660   37.6220    9.2700 N   0  0  0  0  0  0  0  0  0  0  0  0
  -32.6440   37.2890    9.3230 C   0  0  0  0  0  0  0  0  0  0  0  0
  -31.3080   35.4300   10.0770 C   0  0  0  0  0  0  0  0  0  0  0  0
  -31.5130   38.0160    8.9250 C   0  0  0  0  0  0  0  0  0  0  0  0
  -30.1710   36.1610    9.6660 C   0  0  0  0  0  0  0  0  0  0  0  0
  -30.2940   37.4350    9.1030 C   0  0  0  0  0  0  0  0  0  0  0  0
  -36.4950   33.6650    8.1660 N   0  0  0  0  0  0  0  0  0  0  0  0
  -37.7840   33.9060    7.5200 C   0  0  2  0  0  0  0  0  0  0  0  0
  -38.7740   32.7500    7.7400 C   0  0  0  0  0  0  0  0  0  0  0  0
  -39.9750   32.9620    7.8270 O   0  0  0  0  0  0  0  0  0  0  0  0
  -37.5720   34.1560    6.0170 C   0  0  0  0  0  0  0  0  0  0  0  0
  -38.2690   31.5270    7.7860 N   0  0  0  0  0  0  0  0  0  0  0  0
  -39.1070   30.3280    7.8200 C   0  0  2  0  0  0  0  0  0  0  0  0
  -38.6030   29.4030    8.9380 C   0  0  0  0  0  0  0  0  0  0  0  0
  -37.5410   29.5980    9.4940 O   0  0  0  0  0  0  0  0  0  0  0  0
  -39.0780   29.5560    6.5170 C   0  0  2  0  0  0  0  0  0  0  0  0
  -37.7390   29.1610    6.2920 O   0  0  0  0  0  0  0  0  0  0  0  0
  -39.5460   30.4010    5.3370 C   0  0  0  0  0  0  0  0  0  0  0  0
  -39.4220   28.4260    9.2620 N   0  0  0  0  0  0  0  0  0  0  0  0
  -39.1720   27.4980   10.3390 C   0  0  2  0  0  0  0  0  0  0  0  0
  -39.4740   26.0980    9.7960 C   0  0  0  0  0  0  0  0  0  0  0  0
  -39.8190   25.9320    8.6300 O   0  0  0  0  0  0  0  0  0  0  0  0
  -39.9980   27.8510   11.5720 C   0  0  0  0  0  0  0  0  0  0  0  0
  -41.7040   27.6660   11.3460 S   0  0  0  0  0  0  0  0  0  0  0  0
  -39.2310   25.0980   10.6250 N   0  0  0  0  0  0  0  0  0  0  0  0
  -39.5240   23.7170   10.2900 C   0  0  2  0  0  0  0  0  0  0  0  0
  -40.7640   23.3000   11.0160 C   0  0  0  0  0  0  0  0  0  0  0  0
  -40.8470   23.4530   12.2170 O   0  0  0  0  0  0  0  0  0  0  0  0
  -38.3630   22.7700   10.6230 C   0  0  0  0  0  0  0  0  0  0  0  0
  -37.1370   23.0400    9.8150 C   0  0  0  0  0  0  0  0  0  0  0  0
  -37.2300   23.0290    8.5850 O   0  5  0  0  0  0  0  0  0  0  0  0
  -36.0830   23.2840   10.3910 O   0  0  0  0  0  0  0  0  0  0  0  0
  -41.7660   22.8810   10.2630 N   0  0  0  0  0  0  0  0  0  0  0  0
  -43.0480   22.4960   10.8320 C   0  0  2  0  0  0  0  0  0  0  0  0
  -43.2730   21.0300   10.5960 C   0  0  0  0  0  0  0  0  0  0  0  0
  -42.5800   20.4140    9.8110 O   0  0  0  0  0  0  0  0  0  0  0  0
  -44.2030   23.2920   10.2320 C   0  0  0  0  0  0  0  0  0  0  0  0
  -44.0500   24.6700   10.4530 O   0  0  0  0  0  0  0  0  0  0  0  0
  -44.1560   20.4090   11.5320 N   0  0  0  0  0  0  0  0  0  0  0  0
  -31.0611   35.5996    6.4934 H   0  0  0  0  0  0  0  0  0  0  0  0
  -32.4426   36.5479    7.1406 H   0  0  0  0  0  0  0  0  0  0  0  0
  -32.2667   36.3123    5.3685 H   0  0  0  0  0  0  0  0  0  0  0  0
  -33.5671   32.0056    5.8082 H   0  0  0  0  0  0  0  0  0  0  0  0
  -31.7672   30.5698    5.7985 H   0  0  0  0  0  0  0  0  0  0  0  0
  -32.2371   30.2002    7.4924 H   0  0  0  0  0  0  0  0  0  0  0  0
  -29.8201   31.1612    6.8488 H   0  0  0  0  0  0  0  0  0  0  0  0
  -30.6545   31.5944    8.3794 H   0  0  0  0  0  0  0  0  0  0  0  0
  -30.3076   33.6968    7.6202 H   0  0  0  0  0  0  0  0  0  0  0  0
  -30.2336   33.1776    5.9022 H   0  0  0  0  0  0  0  0  0  0  0  0
  -33.2365   33.7198    8.6761 H   0  0  0  0  0  0  0  0  0  0  0  0
  -34.9068   32.2503   10.4711 H   0  0  0  0  0  0  0  0  0  0  0  0
  -33.5437   33.9008   11.4032 H   0  0  0  0  0  0  0  0  0  0  0  0
  -35.2049   34.5738   11.5221 H   0  0  0  0  0  0  0  0  0  0  0  0
  -35.7989   36.6110    9.8612 H   0  0  0  0  0  0  0  0  0  0  0  0
  -34.3414   38.5073    8.9010 H   0  0  0  0  0  0  0  0  0  0  0  0
  -31.2057   34.4456   10.5193 H   0  0  0  0  0  0  0  0  0  0  0  0
  -31.6055   39.0051    8.4912 H   0  0  0  0  0  0  0  0  0  0  0  0
  -29.1856   35.7264    9.7893 H   0  0  0  0  0  0  0  0  0  0  0  0
  -29.4012   37.9711    8.8021 H   0  0  0  0  0  0  0  0  0  0  0  0
  -35.6764   33.6755    7.5917 H   0  0  0  0  0  0  0  0  0  0  0  0
  -38.2216   34.8127    7.9633 H   0  0  0  0  0  0  0  0  0  0  0  0
  -38.5440   34.3369    5.5347 H   0  0  0  0  0  0  0  0  0  0  0  0
  -37.0954   33.2750    5.5624 H   0  0  0  0  0  0  0  0  0  0  0  0
  -36.9251   35.0349    5.8791 H   0  0  0  0  0  0  0  0  0  0  0  0
  -37.2750   31.4183    7.7980 H   0  0  0  0  0  0  0  0  0  0  0  0
  -40.1439   30.6290    8.0302 H   0  0  0  0  0  0  0  0  0  0  0  0
  -39.7237   28.6696    6.6033 H   0  0  0  0  0  0  0  0  0  0  0  0
  -37.4464   28.6135    7.0111 H   0  0  0  0  0  0  0  0  0  0  0  0
  -39.5074   29.7993    4.4170 H   0  0  0  0  0  0  0  0  0  0  0  0
  -38.8894   31.2770    5.2300 H   0  0  0  0  0  0  0  0  0  0  0  0
  -40.5788   30.7362    5.5128 H   0  0  0  0  0  0  0  0  0  0  0  0
  -40.2641   28.3203    8.7331 H   0  0  0  0  0  0  0  0  0  0  0  0
  -38.1092   27.5474   10.6184 H   0  0  0  0  0  0  0  0  0  0  0  0
  -39.7949   28.8991   11.8372 H   0  0  0  0  0  0  0  0  0  0  0  0
  -39.6846   27.1963   12.3985 H   0  0  0  0  0  0  0  0  0  0  0  0
  -42.1834   27.9154   12.1968 H   0  0  0  0  0  0  0  0  0  0  0  0
  -38.8295   25.3010   11.5181 H   0  0  0  0  0  0  0  0  0  0  0  0
  -39.7111   23.6564    9.2077 H   0  0  0  0  0  0  0  0  0  0  0  0
  -38.6880   21.7367   10.4314 H   0  0  0  0  0  0  0  0  0  0  0  0
  -38.1125   22.8841   11.6880 H   0  0  0  0  0  0  0  0  0  0  0  0
  -41.6390   22.8271    9.2726 H   0  0  0  0  0  0  0  0  0  0  0  0
  -43.0205   22.6849   11.9153 H   0  0  0  0  0  0  0  0  0  0  0  0
  -45.1442   22.9587   10.6936 H   0  0  0  0  0  0  0  0  0  0  0  0
  -44.2400   23.1061    9.1485 H   0  0  0  0  0  0  0  0  0  0  0  0
  -43.2410   24.9659   10.0526 H   0  0  0  0  0  0  0  0  0  0  0  0
  -44.3642   19.4342   11.4521 H   0  0  0  0  0  0  0  0  0  0  0  0
  -44.5658   20.9492   12.2670 H   0  0  0  0  0  0  0  0  0  0  0  0
  1  2  2  0  0  0  0
  1  3  1  0  0  0  0
  1  4  1  0  0  0  0
  3 58  1  0  0  0  0
  3 59  1  0  0  0  0
  3 60  1  0  0  0  0
  4  5  1  0  0  0  0
  4 10  1  0  0  0  0
  5  6  1  0  0  0  0
  5  8  1  0  0  0  0
  5 61  1  6  0  0  0
  6  7  2  0  0  0  0
  6 11  1  0  0  0  0
  8  9  1  0  0  0  0
  8 62  1  0  0  0  0
  8 63  1  0  0  0  0
  9 10  1  0  0  0  0
  9 64  1  0  0  0  0
  9 65  1  0  0  0  0
 10 66  1  0  0  0  0
 10 67  1  0  0  0  0
 11 12  1  0  0  0  0
 11 68  1  0  0  0  0
 12 13  1  0  0  0  0
 12 15  1  0  0  0  0
 12 69  1  1  0  0  0
 13 14  2  0  0  0  0
 13 25  1  0  0  0  0
 15 16  1  0  0  0  0
 15 70  1  0  0  0  0
 15 71  1  0  0  0  0
 16 17  2  0  0  0  0
 16 18  1  0  0  0  0
 17 19  1  0  0  0  0
 17 72  1  0  0  0  0
 18 20  2  0  0  0  0
 18 21  1  0  0  0  0
 19 20  1  0  0  0  0
 19 73  1  0  0  0  0
 20 22  1  0  0  0  0
 21 23  2  0  0  0  0
 21 74  1  0  0  0  0
 22 24  2  0  0  0  0
 22 75  1  0  0  0  0
 23 24  1  0  0  0  0
 23 76  1  0  0  0  0
 24 77  1  0  0  0  0
 25 26  1  0  0  0  0
 25 78  1  0  0  0  0
 26 27  1  0  0  0  0
 26 29  1  0  0  0  0
 26 79  1  1  0  0  0
 27 28  2  0  0  0  0
 27 30  1  0  0  0  0
 29 80  1  0  0  0  0
 29 81  1  0  0  0  0
 29 82  1  0  0  0  0
 30 31  1  0  0  0  0
 30 83  1  0  0  0  0
 31 32  1  0  0  0  0
 31 34  1  0  0  0  0
 31 84  1  1  0  0  0
 32 33  2  0  0  0  0
 32 37  1  0  0  0  0
 34 35  1  0  0  0  0
 34 36  1  0  0  0  0
 34 85  1  1  0  0  0
 35 86  1  0  0  0  0
 36 87  1  0  0  0  0
 36 88  1  0  0  0  0
 36 89  1  0  0  0  0
 37 38  1  0  0  0  0
 37 90  1  0  0  0  0
 38 39  1  0  0  0  0
 38 41  1  0  0  0  0
 38 91  1  1  0  0  0
 39 40  2  0  0  0  0
 39 43  1  0  0  0  0
 41 42  1  0  0  0  0
 41 92  1  0  0  0  0
 41 93  1  0  0  0  0
 42 94  1  0  0  0  0
 43 44  1  0  0  0  0
 43 95  1  0  0  0  0
 44 45  1  0  0  0  0
 44 47  1  0  0  0  0
 44 96  1  6  0  0  0
 45 46  2  0  0  0  0
 45 51  1  0  0  0  0
 47 48  1  0  0  0  0
 47 97  1  0  0  0  0
 47 98  1  0  0  0  0
 48 49  1  0  0  0  0
 48 50  2  0  0  0  0
 51 52  1  0  0  0  0
 51 99  1  0  0  0  0
 52 53  1  0  0  0  0
 52 55  1  0  0  0  0
 52100  1  1  0  0  0
 53 54  2  0  0  0  0
 53 57  1  0  0  0  0
 55 56  1  0  0  0  0
 55101  1  0  0  0  0
 55102  1  0  0  0  0
 56103  1  0  0  0  0
 57104  1  0  0  0  0
 57105  1  0  0  0  0
M  CHG  1  49  -1
M  END
