4od9_ligand
 OpenBabel08222323353D

 74 76  0  0  1  0  0  0  0  0999 V2000
   -9.4870   11.8840  -38.2550 C   0  0  0  0  0  0  0  0  0  0  0  0
   -8.9030   12.9180  -38.9920 C   0  0  0  0  0  0  0  0  0  0  0  0
   -8.0060   13.8010  -38.3880 C   0  0  0  0  0  0  0  0  0  0  0  0
   -5.3180   14.2750  -36.7360 C   0  0  1  0  0  0  0  0  0  0  0  0
   -4.8180   12.9450  -36.1860 C   0  0  0  0  0  0  0  0  0  0  0  0
   -8.3100   12.6160  -36.2890 C   0  0  0  0  0  0  0  0  0  0  0  0
   -3.6920   10.7370  -36.6550 C   0  0  0  0  0  0  0  0  0  0  0  0
   -4.6360    9.8460  -35.8930 C   0  0  0  0  0  0  0  0  0  0  0  0
   -4.1650    9.1450  -34.7810 C   0  0  0  0  0  0  0  0  0  0  0  0
   -5.0190    8.2860  -34.0630 C   0  0  0  0  0  0  0  0  0  0  0  0
    0.5060   16.8510  -31.4510 C   0  0  0  0  0  0  0  0  0  0  0  0
    1.5370   16.6820  -32.3870 C   0  0  0  0  0  0  0  0  0  0  0  0
    0.1090   17.5840  -34.1100 C   0  0  0  0  0  0  0  0  0  0  0  0
    2.4140   16.8950  -34.5650 O   0  0  0  0  0  0  0  0  0  0  0  0
    3.0800   15.8400  -30.6900 C   0  0  0  0  0  0  0  0  0  0  0  0
   -2.2740   18.2220  -33.6320 C   0  0  0  0  0  0  0  0  0  0  0  0
   -2.9920   17.1160  -34.3670 C   0  0  0  0  0  0  0  0  0  0  0  0
   -6.8200    8.8870  -35.5640 C   0  0  0  0  0  0  0  0  0  0  0  0
   -6.3630    8.1690  -34.4480 C   0  0  0  0  0  0  0  0  0  0  0  0
   -7.7440   13.6640  -37.0260 C   0  0  0  0  0  0  0  0  0  0  0  0
   -9.1940   11.7300  -36.9040 C   0  0  0  0  0  0  0  0  0  0  0  0
   -6.7780   14.5910  -36.3300 C   0  0  0  0  0  0  0  0  0  0  0  0
   -4.4930   15.2380  -36.0170 N   0  0  0  0  0  0  0  0  0  0  0  0
   -4.8150   12.7710  -34.9710 O   0  0  0  0  0  0  0  0  0  0  0  0
   -4.2940   12.0340  -37.0460 N   0  0  0  0  0  0  0  0  0  0  0  0
   -5.9500    9.6820  -36.3130 C   0  0  0  0  0  0  0  0  0  0  0  0
   -4.2500   16.5480  -36.3980 C   0  0  2  0  0  3  0  0  0  0  0  0
   -4.6140   17.0140  -37.5580 N   0  0  0  0  0  0  0  0  0  0  0  0
   -3.5500   17.3960  -35.5630 N   0  0  0  0  0  0  0  0  0  0  0  0
    1.3450   17.0560  -33.7190 C   0  0  0  0  0  0  0  0  0  0  0  0
   -0.9240   17.7060  -33.1890 C   0  0  0  0  0  0  0  0  0  0  0  0
   -0.7300   17.3500  -31.8510 C   0  0  0  0  0  0  0  0  0  0  0  0
    2.7880   16.2340  -32.0480 O   0  0  0  0  0  0  0  0  0  0  0  0
    2.3560   17.1290  -35.9750 C   0  0  0  0  0  0  0  0  0  0  0  0
   -3.0530   16.0150  -33.8770 O   0  0  0  0  0  0  0  0  0  0  0  0
   -7.1940    7.3360  -33.7360 O   0  0  0  0  0  0  0  0  0  0  0  0
   -4.5910    7.5970  -32.9640 O   0  0  0  0  0  0  0  0  0  0  0  0
   -3.1930    7.3090  -32.7850 C   0  0  0  0  0  0  0  0  0  0  0  0
   -8.5690    7.1720  -34.1300 C   0  0  0  0  0  0  0  0  0  0  0  0
  -10.1725   11.1979  -38.7392 H   0  0  0  0  0  0  0  0  0  0  0  0
   -9.1486   13.0353  -40.0413 H   0  0  0  0  0  0  0  0  0  0  0  0
   -7.5222   14.5788  -38.9677 H   0  0  0  0  0  0  0  0  0  0  0  0
   -5.1944   14.3316  -37.8276 H   0  0  0  0  0  0  0  0  0  0  0  0
   -8.0610   12.4937  -35.2411 H   0  0  0  0  0  0  0  0  0  0  0  0
   -3.3752   10.2104  -37.5673 H   0  0  0  0  0  0  0  0  0  0  0  0
   -2.8140   10.9364  -36.0231 H   0  0  0  0  0  0  0  0  0  0  0  0
   -3.1339    9.2630  -34.4680 H   0  0  0  0  0  0  0  0  0  0  0  0
    0.6727   16.5918  -30.4117 H   0  0  0  0  0  0  0  0  0  0  0  0
   -0.0429   17.8991  -35.1360 H   0  0  0  0  0  0  0  0  0  0  0  0
    4.1280   15.5132  -30.6204 H   0  0  0  0  0  0  0  0  0  0  0  0
    2.4175   15.0118  -30.3980 H   0  0  0  0  0  0  0  0  0  0  0  0
    2.9170   16.6947  -30.0171 H   0  0  0  0  0  0  0  0  0  0  0  0
   -2.8616   18.5259  -32.7532 H   0  0  0  0  0  0  0  0  0  0  0  0
   -2.1401   19.0855  -34.3001 H   0  0  0  0  0  0  0  0  0  0  0  0
   -7.8640    8.8234  -35.8488 H   0  0  0  0  0  0  0  0  0  0  0  0
   -9.6490   10.9280  -36.3340 H   0  0  0  0  0  0  0  0  0  0  0  0
   -7.0122   15.6293  -36.6076 H   0  0  0  0  0  0  0  0  0  0  0  0
   -6.8834   14.4697  -35.2418 H   0  0  0  0  0  0  0  0  0  0  0  0
   -4.0497   14.9149  -35.1452 H   0  0  0  0  0  0  0  0  0  0  0  0
   -4.3160   12.2558  -38.0209 H   0  0  0  0  0  0  0  0  0  0  0  0
   -6.2980   10.1684  -37.2171 H   0  0  0  0  0  0  0  0  0  0  0  0
   -4.4153   17.9941  -37.8047 H   0  0  0  0  0  0  0  0  0  0  0  0
   -5.1006   16.4025  -38.2290 H   0  0  0  0  0  0  0  0  0  0  0  0
   -3.4431   18.3365  -35.8855 H   0  0  0  0  0  0  0  0  0  0  0  0
   -1.5340   17.4615  -31.1326 H   0  0  0  0  0  0  0  0  0  0  0  0
    3.3415   16.9289  -36.4207 H   0  0  0  0  0  0  0  0  0  0  0  0
    2.0750   18.1760  -36.1617 H   0  0  0  0  0  0  0  0  0  0  0  0
    1.6070   16.4621  -36.4269 H   0  0  0  0  0  0  0  0  0  0  0  0
   -3.0507    6.7509  -31.8478 H   0  0  0  0  0  0  0  0  0  0  0  0
   -2.6273    8.2513  -32.7401 H   0  0  0  0  0  0  0  0  0  0  0  0
   -2.8320    6.7045  -33.6301 H   0  0  0  0  0  0  0  0  0  0  0  0
   -9.0663    6.4718  -33.4427 H   0  0  0  0  0  0  0  0  0  0  0  0
   -8.6119    6.7731  -35.1542 H   0  0  0  0  0  0  0  0  0  0  0  0
   -9.0794    8.1457  -34.0940 H   0  0  0  0  0  0  0  0  0  0  0  0
  1 40  1  0  0  0  0
  2  1  2  0  0  0  0
  2 41  1  0  0  0  0
  3  2  1  0  0  0  0
  3 42  1  0  0  0  0
  4  5  1  0  0  0  0
  4 22  1  0  0  0  0
  4 43  1  6  0  0  0
  5 24  2  0  0  0  0
  5 25  1  0  0  0  0
  6 21  2  0  0  0  0
  6 44  1  0  0  0  0
  7  8  1  0  0  0  0
  7 45  1  0  0  0  0
  7 46  1  0  0  0  0
  8  9  2  0  0  0  0
  8 26  1  0  0  0  0
  9 10  1  0  0  0  0
  9 47  1  0  0  0  0
 10 19  2  0  0  0  0
 10 37  1  0  0  0  0
 11 32  1  0  0  0  0
 11 48  1  0  0  0  0
 12 11  2  0  0  0  0
 12 33  1  0  0  0  0
 13 30  2  0  0  0  0
 13 49  1  0  0  0  0
 14 34  1  0  0  0  0
 15 50  1  0  0  0  0
 15 51  1  0  0  0  0
 15 52  1  0  0  0  0
 16 31  1  0  0  0  0
 16 53  1  0  0  0  0
 16 54  1  0  0  0  0
 17 16  1  0  0  0  0
 17 35  2  0  0  0  0
 18 19  1  0  0  0  0
 18 55  1  0  0  0  0
 19 36  1  0  0  0  0
 20  3  2  0  0  0  0
 20  6  1  0  0  0  0
 21  1  1  0  0  0  0
 21 56  1  0  0  0  0
 22 20  1  0  0  0  0
 22 57  1  0  0  0  0
 22 58  1  0  0  0  0
 23  4  1  0  0  0  0
 23 59  1  0  0  0  0
 25  7  1  0  0  0  0
 25 60  1  0  0  0  0
 26 18  2  0  0  0  0
 26 61  1  0  0  0  0
 27 23  1  6  0  0  0
 27 28  1  0  0  0  0
 27 29  1  0  0  0  0
 28 62  1  0  0  0  0
 28 63  1  0  0  0  0
 29 17  1  0  0  0  0
 29 64  1  0  0  0  0
 30 12  1  0  0  0  0
 30 14  1  0  0  0  0
 31 13  1  0  0  0  0
 31 32  2  0  0  0  0
 32 65  1  0  0  0  0
 33 15  1  0  0  0  0
 34 66  1  0  0  0  0
 34 67  1  0  0  0  0
 34 68  1  0  0  0  0
 36 39  1  0  0  0  0
 37 38  1  0  0  0  0
 38 69  1  0  0  0  0
 38 70  1  0  0  0  0
 38 71  1  0  0  0  0
 39 72  1  0  0  0  0
 39 73  1  0  0  0  0
 39 74  1  0  0  0  0
M  END
