4ode_ligand
 OpenBabel08222323353D

 81 85  0  0  1  0  0  0  0  0999 V2000
   12.6700  -23.6660   -2.2260 C   0  0  0  0  0  0  0  0  0  0  0  0
   13.7000  -23.0470   -1.5140 C   0  0  0  0  0  0  0  0  0  0  0  0
   15.3070  -23.0110   -2.1750 Cl  0  0  0  0  0  0  0  0  0  0  0  0
   13.4520  -22.4620   -0.2740 C   0  0  0  0  0  0  0  0  0  0  0  0
   12.1670  -22.4930    0.2620 C   0  0  0  0  0  0  0  0  0  0  0  0
   11.1390  -23.1080   -0.4580 C   0  0  0  0  0  0  0  0  0  0  0  0
   11.3780  -23.6970   -1.7000 C   0  0  0  0  0  0  0  0  0  0  0  0
   10.2210  -24.3640   -2.4660 C   0  0  1  0  0  0  0  0  0  0  0  0
    9.3550  -25.2310   -1.5640 C   0  0  0  0  0  0  0  0  0  0  0  0
    9.3240  -23.1960   -2.9420 C   0  0  1  0  0  0  0  0  0  0  0  0
   10.1540  -22.3440   -3.9280 C   0  0  0  0  0  0  0  0  0  0  0  0
   10.6940  -22.9230   -5.0670 C   0  0  0  0  0  0  0  0  0  0  0  0
   11.4440  -22.1620   -5.9550 C   0  0  0  0  0  0  0  0  0  0  0  0
   11.9480  -22.7490   -7.0580 F   0  0  0  0  0  0  0  0  0  0  0  0
   11.6750  -20.8150   -5.6990 C   0  0  0  0  0  0  0  0  0  0  0  0
   12.6270  -19.8500   -6.7810 Cl  0  0  0  0  0  0  0  0  0  0  0  0
   11.1430  -20.2320   -4.5550 C   0  0  0  0  0  0  0  0  0  0  0  0
   10.3890  -20.9990   -3.6720 C   0  0  0  0  0  0  0  0  0  0  0  0
    8.0810  -23.6450   -3.6100 N   0  0  0  0  0  0  0  0  0  0  0  0
    7.2160  -22.6660   -4.3250 C   0  0  1  0  0  0  0  0  0  0  0  0
    6.7940  -22.9900   -5.7630 C   0  0  0  0  0  0  0  0  0  0  0  0
    6.9860  -21.8450   -6.7490 C   0  0  0  0  0  0  0  0  0  0  0  0
    7.8850  -23.0870   -6.8240 C   0  0  0  0  0  0  0  0  0  0  0  0
    5.9490  -22.3860   -3.4970 C   0  0  0  0  0  0  0  0  0  0  0  0
    6.2100  -21.7290   -1.8190 S   0  0  0  0  0  0  0  0  0  0  0  0
    6.9690  -22.7130   -0.9690 O   0  0  0  0  0  0  0  0  0  0  0  0
    6.9630  -20.4370   -1.8680 O   0  0  0  0  0  0  0  0  0  0  0  0
    4.5740  -21.4650   -1.0420 C   0  0  0  0  0  0  0  0  0  0  0  0
    3.8410  -22.8060   -1.0010 C   0  0  0  0  0  0  0  0  0  0  0  0
    4.7760  -20.9200    0.3670 C   0  0  0  0  0  0  0  0  0  0  0  0
    3.7800  -20.4630   -1.8700 C   0  0  0  0  0  0  0  0  0  0  0  0
    7.5890  -24.9420   -3.3550 C   0  0  0  0  0  0  0  0  0  0  0  0
    6.5050  -25.3090   -3.8060 O   0  0  0  0  0  0  0  0  0  0  0  0
    8.2780  -25.9200   -2.4170 C   0  0  2  0  0  0  0  0  0  0  0  0
    7.1990  -26.4700   -1.4840 C   0  0  0  0  0  0  0  0  0  0  0  0
    8.7890  -27.0150   -3.3620 C   0  0  0  0  0  0  0  0  0  0  0  0
    9.2960  -28.2400   -2.5880 C   0  0  0  0  0  0  0  0  0  0  0  0
    8.2890  -29.6030   -2.3930 S   0  0  0  0  0  0  0  0  0  0  0  0
   10.4530  -28.5060   -1.9680 N   0  0  0  0  0  0  0  0  0  0  0  0
   10.4900  -29.7330   -1.3830 C   0  0  0  0  0  0  0  0  0  0  0  0
    9.3750  -30.4730   -1.5200 C   0  0  0  0  0  0  0  0  0  0  0  0
    9.0370  -31.8740   -1.0230 C   0  0  0  0  0  0  0  0  0  0  0  0
   10.3060  -32.5010   -0.4750 C   0  0  0  0  0  0  0  0  0  0  0  0
   10.8770  -33.3370   -1.2100 O   0  5  0  0  0  0  0  0  0  0  0  0
   10.6830  -32.1170    0.6560 O   0  0  0  0  0  0  0  0  0  0  0  0
   12.8745  -24.1225   -3.1877 H   0  0  0  0  0  0  0  0  0  0  0  0
   14.2572  -21.9840    0.2721 H   0  0  0  0  0  0  0  0  0  0  0  0
   11.9661  -22.0445    1.2282 H   0  0  0  0  0  0  0  0  0  0  0  0
   10.1374  -23.1277   -0.0438 H   0  0  0  0  0  0  0  0  0  0  0  0
   10.6055  -24.9548   -3.3105 H   0  0  0  0  0  0  0  0  0  0  0  0
    8.8741  -24.6029   -0.7996 H   0  0  0  0  0  0  0  0  0  0  0  0
    9.9797  -25.9920   -1.0734 H   0  0  0  0  0  0  0  0  0  0  0  0
    9.0477  -22.5850   -2.0700 H   0  0  0  0  0  0  0  0  0  0  0  0
   10.5298  -23.9759   -5.2655 H   0  0  0  0  0  0  0  0  0  0  0  0
   11.3152  -19.1814   -4.3509 H   0  0  0  0  0  0  0  0  0  0  0  0
    9.9816  -20.5431   -2.7769 H   0  0  0  0  0  0  0  0  0  0  0  0
    7.7966  -21.7332   -4.3787 H   0  0  0  0  0  0  0  0  0  0  0  0
    5.9130  -23.6481   -5.7902 H   0  0  0  0  0  0  0  0  0  0  0  0
    7.4000  -20.8858   -6.4049 H   0  0  0  0  0  0  0  0  0  0  0  0
    6.2353  -21.6608   -7.5316 H   0  0  0  0  0  0  0  0  0  0  0  0
    7.7790  -23.7940   -7.6600 H   0  0  0  0  0  0  0  0  0  0  0  0
    8.9437  -23.0190   -6.5333 H   0  0  0  0  0  0  0  0  0  0  0  0
    5.3938  -23.3310   -3.4041 H   0  0  0  0  0  0  0  0  0  0  0  0
    5.3408  -21.6563   -4.0516 H   0  0  0  0  0  0  0  0  0  0  0  0
    2.8531  -22.6698   -0.5367 H   0  0  0  0  0  0  0  0  0  0  0  0
    4.4270  -23.5264   -0.4114 H   0  0  0  0  0  0  0  0  0  0  0  0
    3.7153  -23.1867   -2.0253 H   0  0  0  0  0  0  0  0  0  0  0  0
    3.7968  -20.7584    0.8415 H   0  0  0  0  0  0  0  0  0  0  0  0
    5.3209  -19.9658    0.3165 H   0  0  0  0  0  0  0  0  0  0  0  0
    5.3560  -21.6425    0.9600 H   0  0  0  0  0  0  0  0  0  0  0  0
    2.7959  -20.3019   -1.4058 H   0  0  0  0  0  0  0  0  0  0  0  0
    3.6450  -20.8546   -2.8890 H   0  0  0  0  0  0  0  0  0  0  0  0
    4.3256  -19.5089   -1.9131 H   0  0  0  0  0  0  0  0  0  0  0  0
    6.4187  -26.9674   -2.0788 H   0  0  0  0  0  0  0  0  0  0  0  0
    6.7527  -25.6433   -0.9119 H   0  0  0  0  0  0  0  0  0  0  0  0
    7.6491  -27.1952   -0.7901 H   0  0  0  0  0  0  0  0  0  0  0  0
    9.6134  -26.6086   -3.9662 H   0  0  0  0  0  0  0  0  0  0  0  0
    7.9678  -27.3264   -4.0243 H   0  0  0  0  0  0  0  0  0  0  0  0
   11.3632  -30.0922   -0.8403 H   0  0  0  0  0  0  0  0  0  0  0  0
    8.6507  -32.4813   -1.8549 H   0  0  0  0  0  0  0  0  0  0  0  0
    8.2780  -31.8146   -0.2290 H   0  0  0  0  0  0  0  0  0  0  0  0
  1  2  2  0  0  0  0
  1  7  1  0  0  0  0
  1 46  1  0  0  0  0
  2  3  1  0  0  0  0
  2  4  1  0  0  0  0
  4  5  2  0  0  0  0
  4 47  1  0  0  0  0
  5  6  1  0  0  0  0
  5 48  1  0  0  0  0
  6  7  2  0  0  0  0
  6 49  1  0  0  0  0
  7  8  1  0  0  0  0
  8  9  1  0  0  0  0
  8 10  1  0  0  0  0
  8 50  1  6  0  0  0
  9 34  1  0  0  0  0
  9 51  1  0  0  0  0
  9 52  1  0  0  0  0
 10 11  1  0  0  0  0
 10 19  1  0  0  0  0
 10 53  1  1  0  0  0
 11 12  2  0  0  0  0
 11 18  1  0  0  0  0
 12 13  1  0  0  0  0
 12 54  1  0  0  0  0
 13 14  1  0  0  0  0
 13 15  2  0  0  0  0
 15 16  1  0  0  0  0
 15 17  1  0  0  0  0
 17 18  2  0  0  0  0
 17 55  1  0  0  0  0
 18 56  1  0  0  0  0
 19 20  1  0  0  0  0
 19 32  1  0  0  0  0
 20 21  1  0  0  0  0
 20 24  1  0  0  0  0
 20 57  1  6  0  0  0
 21 22  1  0  0  0  0
 21 23  1  0  0  0  0
 21 58  1  0  0  0  0
 22 23  1  0  0  0  0
 22 59  1  0  0  0  0
 22 60  1  0  0  0  0
 23 61  1  0  0  0  0
 23 62  1  0  0  0  0
 24 25  1  0  0  0  0
 24 63  1  0  0  0  0
 24 64  1  0  0  0  0
 25 26  2  0  0  0  0
 25 27  2  0  0  0  0
 25 28  1  0  0  0  0
 28 29  1  0  0  0  0
 28 30  1  0  0  0  0
 28 31  1  0  0  0  0
 29 65  1  0  0  0  0
 29 66  1  0  0  0  0
 29 67  1  0  0  0  0
 30 68  1  0  0  0  0
 30 69  1  0  0  0  0
 30 70  1  0  0  0  0
 31 71  1  0  0  0  0
 31 72  1  0  0  0  0
 31 73  1  0  0  0  0
 32 33  2  0  0  0  0
 32 34  1  0  0  0  0
 34 35  1  1  0  0  0
 34 36  1  0  0  0  0
 35 74  1  0  0  0  0
 35 75  1  0  0  0  0
 35 76  1  0  0  0  0
 36 37  1  0  0  0  0
 36 77  1  0  0  0  0
 36 78  1  0  0  0  0
 37 38  1  0  0  0  0
 37 39  2  0  0  0  0
 38 41  1  0  0  0  0
 39 40  1  0  0  0  0
 40 41  2  0  0  0  0
 40 79  1  0  0  0  0
 41 42  1  0  0  0  0
 42 43  1  0  0  0  0
 42 80  1  0  0  0  0
 42 81  1  0  0  0  0
 43 44  1  0  0  0  0
 43 45  2  0  0  0  0
M  CHG  1  44  -1
M  END
