4oef_ligand
 OpenBabel08222323353D

 56 57  0  0  1  0  0  0  0  0999 V2000
   13.9380  -19.3750   21.5260 C   0  0  2  0  0  0  0  0  0  0  0  0
   14.5710  -19.5830   20.1490 C   0  0  1  0  0  0  0  0  0  0  0  0
   14.5170  -21.0570   19.7590 C   0  0  2  0  0  0  0  0  0  0  0  0
   15.1650  -21.8860   20.8560 C   0  0  1  0  0  0  0  0  0  0  0  0
   14.4740  -21.5800   22.1780 C   0  0  1  0  0  0  0  0  0  0  0  0
   15.1430  -22.3660   23.2950 C   0  0  0  0  0  0  0  0  0  0  0  0
   13.8950  -18.7620   19.1540 N   0  0  0  0  0  0  0  0  0  0  0  0
   15.2020  -21.2330   18.5420 O   0  0  0  0  0  0  0  0  0  0  0  0
   15.0750  -23.2710   20.5550 O   0  0  0  0  0  0  0  0  0  0  0  0
   14.5820  -20.2020   22.4830 O   0  0  0  0  0  0  0  0  0  0  0  0
   16.4880  -21.9460   23.2900 O   0  0  0  0  0  0  0  0  0  0  0  0
   14.3950  -17.2510   18.9520 S   0  0  0  0  0  0  0  0  0  0  0  0
   13.6500  -16.6860   17.8600 O   0  0  0  0  0  1  0  0  0  0  0  0
   15.8210  -17.3520   18.6600 O   0  0  0  0  0  1  0  0  0  0  0  0
   14.1520  -16.5450   20.1980 O   0  0  0  0  0  1  0  0  0  0  0  0
   17.4490  -22.4740   24.3870 S   0  0  0  0  0  0  0  0  0  0  0  0
   18.6700  -21.6840   24.3180 O   0  0  0  0  0  1  0  0  0  0  0  0
   17.7180  -23.8510   23.9850 O   0  0  0  0  0  1  0  0  0  0  0  0
   16.7370  -22.3130   25.6540 O   0  0  0  0  0  1  0  0  0  0  0  0
   10.2310  -18.4640   17.7990 S   0  0  0  0  0  0  0  0  0  0  0  0
    9.1460  -19.4360   20.7900 C   0  0  1  0  0  0  0  0  0  0  0  0
    7.8540  -18.9200   21.1700 O   0  0  0  0  0  0  0  0  0  0  0  0
   10.1030  -18.3280   20.3270 C   0  0  2  0  0  0  0  0  0  0  0  0
   10.7750  -18.8440   19.1890 O   0  0  0  0  0  0  0  0  0  0  0  0
   11.1250  -17.8630   21.3550 C   0  0  1  0  0  0  0  0  0  0  0  0
   10.4470  -16.9500   22.2210 O   0  0  0  0  0  0  0  0  0  0  0  0
   11.7290  -19.0080   22.1720 C   0  0  2  0  0  0  0  0  0  0  0  0
   12.5850  -19.8200   21.3440 O   0  0  0  0  0  0  0  0  0  0  0  0
   10.5810  -19.8130   22.7450 C   0  0  1  0  0  0  0  0  0  0  0  0
    9.7720  -20.3540   21.6990 O   0  0  0  0  0  0  0  0  0  0  0  0
   11.0610  -20.9860   23.5430 C   0  0  0  0  0  0  0  0  0  0  0  0
    7.4550  -18.8520   22.5380 C   0  0  0  0  0  0  0  0  0  0  0  0
   11.8500  -20.7870   24.4730 O   0  5  0  0  0  0  0  0  0  0  0  0
   10.6220  -22.1100   23.2260 O   0  0  0  0  0  0  0  0  0  0  0  0
   11.0640  -19.1490   16.7980 O   0  0  0  0  0  1  0  0  0  0  0  0
   10.3170  -17.0000   17.6810 O   0  0  0  0  0  1  0  0  0  0  0  0
    8.8230  -18.9090   17.6740 O   0  0  0  0  0  1  0  0  0  0  0  0
   13.9816  -18.3209   21.8374 H   0  0  0  0  0  0  0  0  0  0  0  0
   15.6255  -19.2738   20.1980 H   0  0  0  0  0  0  0  0  0  0  0  0
   13.4693  -21.3691   19.6368 H   0  0  0  0  0  0  0  0  0  0  0  0
   16.2271  -21.6104   20.9340 H   0  0  0  0  0  0  0  0  0  0  0  0
   13.4128  -21.8610   22.1084 H   0  0  0  0  0  0  0  0  0  0  0  0
   15.0759  -23.4464   23.0998 H   0  0  0  0  0  0  0  0  0  0  0  0
   14.6717  -22.1382   24.2624 H   0  0  0  0  0  0  0  0  0  0  0  0
   13.1398  -19.1300   18.6115 H   0  0  0  0  0  0  0  0  0  0  0  0
   14.7860  -20.7095   17.8672 H   0  0  0  0  0  0  0  0  0  0  0  0
   15.5106  -23.4433   19.7285 H   0  0  0  0  0  0  0  0  0  0  0  0
    8.9450  -20.0378   19.8914 H   0  0  0  0  0  0  0  0  0  0  0  0
    9.5031  -17.4533   20.0354 H   0  0  0  0  0  0  0  0  0  0  0  0
   11.9423  -17.3416   20.8352 H   0  0  0  0  0  0  0  0  0  0  0  0
   10.1195  -16.2172   21.7128 H   0  0  0  0  0  0  0  0  0  0  0  0
   12.3277  -18.5937   22.9966 H   0  0  0  0  0  0  0  0  0  0  0  0
    9.9743  -19.1551   23.3846 H   0  0  0  0  0  0  0  0  0  0  0  0
    6.4412  -18.4301   22.6037 H   0  0  0  0  0  0  0  0  0  0  0  0
    8.1556  -18.2107   23.0929 H   0  0  0  0  0  0  0  0  0  0  0  0
    7.4604  -19.8626   22.9722 H   0  0  0  0  0  0  0  0  0  0  0  0
  1  2  1  0  0  0  0
  1 10  1  0  0  0  0
  1 38  1  1  0  0  0
  2  3  1  0  0  0  0
  2  7  1  0  0  0  0
  2 39  1  1  0  0  0
  3  4  1  0  0  0  0
  3  8  1  0  0  0  0
  3 40  1  6  0  0  0
  4  9  1  0  0  0  0
  4 41  1  1  0  0  0
  5  4  1  0  0  0  0
  5  6  1  0  0  0  0
  5 42  1  6  0  0  0
  6 11  1  0  0  0  0
  6 43  1  0  0  0  0
  6 44  1  0  0  0  0
  7 12  1  0  0  0  0
  7 45  1  0  0  0  0
  8 46  1  0  0  0  0
  9 47  1  0  0  0  0
 10  5  1  0  0  0  0
 11 16  1  0  0  0  0
 12 13  1  0  0  0  0
 12 14  1  0  0  0  0
 12 15  1  0  0  0  0
 16 17  1  0  0  0  0
 16 18  1  0  0  0  0
 16 19  1  0  0  0  0
 20 35  1  0  0  0  0
 20 36  1  0  0  0  0
 20 37  1  0  0  0  0
 21 22  1  0  0  0  0
 21 30  1  0  0  0  0
 21 48  1  6  0  0  0
 22 32  1  0  0  0  0
 23 21  1  0  0  0  0
 23 24  1  0  0  0  0
 23 49  1  6  0  0  0
 24 20  1  0  0  0  0
 25 23  1  0  0  0  0
 25 26  1  0  0  0  0
 25 50  1  6  0  0  0
 26 51  1  0  0  0  0
 27 25  1  0  0  0  0
 27 28  1  0  0  0  0
 27 29  1  0  0  0  0
 27 52  1  1  0  0  0
 28  1  1  0  0  0  0
 29 30  1  0  0  0  0
 29 31  1  0  0  0  0
 29 53  1  1  0  0  0
 31 33  1  0  0  0  0
 31 34  2  0  0  0  0
 32 54  1  0  0  0  0
 32 55  1  0  0  0  0
 32 56  1  0  0  0  0
M  CHG  1  33  -1
M  END
