4oew_ligand
 OpenBabel08222323353D

 58 60  0  0  0  0  0  0  0  0999 V2000
  -25.2180   18.8870  -19.2840 C   0  0  0  0  0  0  0  0  0  0  0  0
  -29.8350   13.5760  -15.0940 C   0  0  0  0  0  0  0  0  0  0  0  0
  -29.4720    9.6800  -19.7340 C   0  0  0  0  0  0  0  0  0  0  0  0
  -28.9300   19.1680  -16.6340 O   0  0  0  0  0  0  0  0  0  0  0  0
  -31.0240   13.5310  -24.0910 O   0  0  0  0  0  0  0  0  0  0  0  0
  -32.6380   14.3540  -22.4650 O   0  0  0  0  0  0  0  0  0  0  0  0
  -30.5490   17.6170  -14.0150 I   0  0  0  0  0  0  0  0  0  0  0  0
  -28.7320   14.8660  -22.6480 C   0  0  0  0  0  0  0  0  0  0  0  0
  -27.6580   15.5620  -22.0500 C   0  0  0  0  0  0  0  0  0  0  0  0
  -29.9720   14.9780  -20.6210 C   0  0  0  0  0  0  0  0  0  0  0  0
  -24.5550   17.9120  -20.2110 C   0  0  0  0  0  0  0  0  0  0  0  0
  -30.8200   14.6100  -15.6370 C   0  0  0  0  0  0  0  0  0  0  0  0
  -25.5030   16.9870  -20.9280 C   0  0  0  0  0  0  0  0  0  0  0  0
  -29.9440   10.0030  -22.1510 C   0  0  0  0  0  0  0  0  0  0  0  0
  -31.5030   10.1150  -20.5250 C   0  0  0  0  0  0  0  0  0  0  0  0
  -30.0800   11.5250  -22.3670 C   0  0  0  0  0  0  0  0  0  0  0  0
  -31.6280   11.6060  -20.5650 C   0  0  0  0  0  0  0  0  0  0  0  0
  -29.7810   15.2910  -17.7350 N   0  0  0  0  0  0  0  0  0  0  0  0
  -28.9420   17.3640  -18.1260 N   0  0  0  0  0  0  0  0  0  0  0  0
  -26.6550   16.6660  -20.1680 O   0  0  0  0  0  0  0  0  0  0  0  0
  -29.9300   14.5680  -21.9010 C   0  0  0  0  0  0  0  0  0  0  0  0
  -27.7280   15.9820  -20.7210 C   0  0  0  0  0  0  0  0  0  0  0  0
  -30.1500   15.6860  -16.4780 C   0  0  0  0  0  0  0  0  0  0  0  0
  -29.9110   16.9950  -15.9640 C   0  0  0  0  0  0  0  0  0  0  0  0
  -28.8590   15.6680  -19.9600 C   0  0  0  0  0  0  0  0  0  0  0  0
  -29.1690   16.0930  -18.5370 C   0  0  0  0  0  0  0  0  0  0  0  0
  -29.2760   17.8210  -16.8850 C   0  0  0  0  0  0  0  0  0  0  0  0
  -30.2700    9.6680  -20.8820 N   0  3  0  0  0  0  0  0  0  0  0  0
  -31.4030   12.1830  -21.8660 N   0  0  0  0  0  0  0  0  0  0  0  0
  -31.2900   13.6580  -22.6560 S   0  0  0  0  0  0  0  0  0  0  0  0
  -24.4532   19.5178  -18.8073 H   0  0  0  0  0  0  0  0  0  0  0  0
  -25.7742   18.3373  -18.5104 H   0  0  0  0  0  0  0  0  0  0  0  0
  -25.9127   19.5210  -19.8544 H   0  0  0  0  0  0  0  0  0  0  0  0
  -30.3793   12.8291  -14.4974 H   0  0  0  0  0  0  0  0  0  0  0  0
  -29.0885   14.0778  -14.4608 H   0  0  0  0  0  0  0  0  0  0  0  0
  -29.3281   13.0765  -15.9328 H   0  0  0  0  0  0  0  0  0  0  0  0
  -28.4624    9.3229  -19.9855 H   0  0  0  0  0  0  0  0  0  0  0  0
  -29.9149    9.0211  -18.9727 H   0  0  0  0  0  0  0  0  0  0  0  0
  -29.4108   10.7054  -19.3407 H   0  0  0  0  0  0  0  0  0  0  0  0
  -27.9898   19.2737  -16.7206 H   0  0  0  0  0  0  0  0  0  0  0  0
  -28.6551   14.5514  -23.6825 H   0  0  0  0  0  0  0  0  0  0  0  0
  -26.7676   15.7727  -22.6312 H   0  0  0  0  0  0  0  0  0  0  0  0
  -30.8733   14.7892  -20.0491 H   0  0  0  0  0  0  0  0  0  0  0  0
  -23.8566   17.2990  -19.6224 H   0  0  0  0  0  0  0  0  0  0  0  0
  -23.9950   18.4827  -20.9664 H   0  0  0  0  0  0  0  0  0  0  0  0
  -31.3247   15.0931  -14.7874 H   0  0  0  0  0  0  0  0  0  0  0  0
  -31.5644   14.0918  -16.2594 H   0  0  0  0  0  0  0  0  0  0  0  0
  -24.9694   16.0545  -21.1639 H   0  0  0  0  0  0  0  0  0  0  0  0
  -25.8246   17.4717  -21.8616 H   0  0  0  0  0  0  0  0  0  0  0  0
  -28.9045    9.7021  -22.3479 H   0  0  0  0  0  0  0  0  0  0  0  0
  -30.6156    9.4784  -22.8465 H   0  0  0  0  0  0  0  0  0  0  0  0
  -32.2435    9.6841  -21.2149 H   0  0  0  0  0  0  0  0  0  0  0  0
  -31.7144    9.7745  -19.5006 H   0  0  0  0  0  0  0  0  0  0  0  0
  -29.9987   11.7180  -23.4469 H   0  0  0  0  0  0  0  0  0  0  0  0
  -29.2448   12.0130  -21.8433 H   0  0  0  0  0  0  0  0  0  0  0  0
  -30.8930   12.0327  -19.8667 H   0  0  0  0  0  0  0  0  0  0  0  0
  -32.6433   11.8759  -20.2389 H   0  0  0  0  0  0  0  0  0  0  0  0
  -30.4011    8.6757  -21.0014 H   0  0  0  0  0  0  0  0  0  0  0  0
  1 31  1  0  0  0  0
  1 32  1  0  0  0  0
  1 33  1  0  0  0  0
  2 34  1  0  0  0  0
  2 35  1  0  0  0  0
  2 36  1  0  0  0  0
  3 37  1  0  0  0  0
  3 38  1  0  0  0  0
  3 39  1  0  0  0  0
  4 40  1  0  0  0  0
  8  9  2  0  0  0  0
  8 41  1  0  0  0  0
  9 22  1  0  0  0  0
  9 42  1  0  0  0  0
 10 25  1  0  0  0  0
 10 43  1  0  0  0  0
 11  1  1  0  0  0  0
 11 44  1  0  0  0  0
 11 45  1  0  0  0  0
 12  2  1  0  0  0  0
 12 46  1  0  0  0  0
 12 47  1  0  0  0  0
 13 11  1  0  0  0  0
 13 48  1  0  0  0  0
 13 49  1  0  0  0  0
 14 28  1  0  0  0  0
 14 50  1  0  0  0  0
 14 51  1  0  0  0  0
 15 28  1  0  0  0  0
 15 52  1  0  0  0  0
 15 53  1  0  0  0  0
 16 14  1  0  0  0  0
 16 54  1  0  0  0  0
 16 55  1  0  0  0  0
 17 15  1  0  0  0  0
 17 56  1  0  0  0  0
 17 57  1  0  0  0  0
 18 23  2  0  0  0  0
 19 27  1  0  0  0  0
 20 13  1  0  0  0  0
 21  8  1  0  0  0  0
 21 10  2  0  0  0  0
 22 20  1  0  0  0  0
 23 12  1  0  0  0  0
 23 24  1  0  0  0  0
 24  7  1  0  0  0  0
 25 22  2  0  0  0  0
 25 26  1  0  0  0  0
 26 18  1  0  0  0  0
 26 19  2  0  0  0  0
 27  4  1  0  0  0  0
 27 24  2  0  0  0  0
 28  3  1  0  0  0  0
 28 58  1  0  0  0  0
 29 16  1  0  0  0  0
 29 17  1  0  0  0  0
 29 30  1  0  0  0  0
 30  5  2  0  0  0  0
 30  6  2  0  0  0  0
 30 21  1  0  0  0  0
M  CHG  1  28   1
M  END
