4oex_ligand
 OpenBabel08222323353D

 58 60  0  0  0  0  0  0  0  0999 V2000
   28.9580  -12.5950   19.5450 C   0  0  0  0  0  0  0  0  0  0  0  0
   26.3380  -18.4680   15.0600 C   0  0  0  0  0  0  0  0  0  0  0  0
   23.4640  -22.0070   19.7440 C   0  0  0  0  0  0  0  0  0  0  0  0
   30.8850  -15.3640   16.8220 O   0  0  0  0  0  0  0  0  0  0  0  0
   28.0890  -20.7550   24.1910 O   0  0  0  0  0  0  0  0  0  0  0  0
   29.1820  -21.6490   22.1830 O   0  0  0  0  0  0  0  0  0  0  0  0
   27.6820  -18.1110   22.8420 C   0  0  0  0  0  0  0  0  0  0  0  0
   27.6510  -16.7810   22.3260 C   0  0  0  0  0  0  0  0  0  0  0  0
   28.3090  -18.9490   20.6990 C   0  0  0  0  0  0  0  0  0  0  0  0
   29.3700  -17.0780   16.1160 C   0  0  0  0  0  0  0  0  0  0  0  0
   27.8400  -12.8050   20.5230 C   0  0  0  0  0  0  0  0  0  0  0  0
   27.7250  -18.9110   15.3930 C   0  0  0  0  0  0  0  0  0  0  0  0
   27.8170  -14.1180   21.2150 C   0  0  0  0  0  0  0  0  0  0  0  0
   24.1910  -21.7180   22.1010 C   0  0  0  0  0  0  0  0  0  0  0  0
   25.5330  -22.9940   20.5340 C   0  0  0  0  0  0  0  0  0  0  0  0
   25.3630  -20.8230   22.3260 C   0  0  0  0  0  0  0  0  0  0  0  0
   26.7040  -22.1110   20.8360 C   0  0  0  0  0  0  0  0  0  0  0  0
   28.0720  -18.1660   17.7510 N   0  0  0  0  0  0  0  0  0  0  0  0
   29.5650  -16.4960   18.3810 N   0  0  0  0  0  0  0  0  0  0  0  0
   27.9340  -15.2310   20.3970 O   0  0  0  0  0  0  0  0  0  0  0  0
   28.4140  -18.0270   16.4670 C   0  0  0  0  0  0  0  0  0  0  0  0
   28.0190  -19.1590   22.0270 C   0  0  0  0  0  0  0  0  0  0  0  0
   27.9570  -16.5670   20.9640 C   0  0  0  0  0  0  0  0  0  0  0  0
   28.2620  -17.6020   20.1750 C   0  0  0  0  0  0  0  0  0  0  0  0
   28.6380  -17.4000   18.6810 C   0  0  0  0  0  0  0  0  0  0  0  0
   29.9500  -16.2980   17.1140 C   0  0  0  0  0  0  0  0  0  0  0  0
   24.2660  -22.3750   20.8290 N   0  3  0  0  0  0  0  0  0  0  0  0
   26.6180  -21.4970   22.1310 N   0  0  0  0  0  0  0  0  0  0  0  0
   28.0470  -20.8430   22.6840 S   0  0  0  0  0  0  0  0  0  0  0  0
   28.8712  -11.5935   19.0984 H   0  0  0  0  0  0  0  0  0  0  0  0
   28.9000  -13.3560   18.7528 H   0  0  0  0  0  0  0  0  0  0  0  0
   29.9226  -12.6815   20.0666 H   0  0  0  0  0  0  0  0  0  0  0  0
   25.9131  -19.1362   14.2964 H   0  0  0  0  0  0  0  0  0  0  0  0
   26.3648  -17.4388   14.6726 H   0  0  0  0  0  0  0  0  0  0  0  0
   25.7146  -18.5028   15.9656 H   0  0  0  0  0  0  0  0  0  0  0  0
   22.5343  -21.5499   20.1137 H   0  0  0  0  0  0  0  0  0  0  0  0
   23.2221  -22.8991   19.1476 H   0  0  0  0  0  0  0  0  0  0  0  0
   24.0048  -21.2825   19.1173 H   0  0  0  0  0  0  0  0  0  0  0  0
   31.0394  -15.3544   15.8847 H   0  0  0  0  0  0  0  0  0  0  0  0
   27.4380  -18.2926   23.8825 H   0  0  0  0  0  0  0  0  0  0  0  0
   27.3963  -15.9471   22.9700 H   0  0  0  0  0  0  0  0  0  0  0  0
   28.5690  -19.7810   20.0546 H   0  0  0  0  0  0  0  0  0  0  0  0
   29.6594  -16.9476   15.0795 H   0  0  0  0  0  0  0  0  0  0  0  0
   26.8911  -12.6958   19.9775 H   0  0  0  0  0  0  0  0  0  0  0  0
   27.9136  -12.0213   21.2913 H   0  0  0  0  0  0  0  0  0  0  0  0
   28.3306  -18.8800   14.4753 H   0  0  0  0  0  0  0  0  0  0  0  0
   27.6804  -19.9441   15.7682 H   0  0  0  0  0  0  0  0  0  0  0  0
   26.8639  -14.1969   21.7585 H   0  0  0  0  0  0  0  0  0  0  0  0
   28.6508  -14.1367   21.9322 H   0  0  0  0  0  0  0  0  0  0  0  0
   23.2704  -21.1172   22.1388 H   0  0  0  0  0  0  0  0  0  0  0  0
   24.1651  -22.4789   22.8949 H   0  0  0  0  0  0  0  0  0  0  0  0
   25.6224  -23.9113   21.1345 H   0  0  0  0  0  0  0  0  0  0  0  0
   25.5558  -23.2519   19.4649 H   0  0  0  0  0  0  0  0  0  0  0  0
   25.3235  -20.4432   23.3576 H   0  0  0  0  0  0  0  0  0  0  0  0
   25.3028  -19.9798   21.6222 H   0  0  0  0  0  0  0  0  0  0  0  0
   26.7529  -21.3191   20.0741 H   0  0  0  0  0  0  0  0  0  0  0  0
   27.6211  -22.7169   20.7945 H   0  0  0  0  0  0  0  0  0  0  0  0
   23.7533  -23.2049   21.0827 H   0  0  0  0  0  0  0  0  0  0  0  0
  1 30  1  0  0  0  0
  1 31  1  0  0  0  0
  1 32  1  0  0  0  0
  2 33  1  0  0  0  0
  2 34  1  0  0  0  0
  2 35  1  0  0  0  0
  3 36  1  0  0  0  0
  3 37  1  0  0  0  0
  3 38  1  0  0  0  0
  4 39  1  0  0  0  0
  7  8  2  0  0  0  0
  7 40  1  0  0  0  0
  8 23  1  0  0  0  0
  8 41  1  0  0  0  0
  9 24  1  0  0  0  0
  9 42  1  0  0  0  0
 10 43  1  0  0  0  0
 11  1  1  0  0  0  0
 11 44  1  0  0  0  0
 11 45  1  0  0  0  0
 12  2  1  0  0  0  0
 12 46  1  0  0  0  0
 12 47  1  0  0  0  0
 13 11  1  0  0  0  0
 13 48  1  0  0  0  0
 13 49  1  0  0  0  0
 14 27  1  0  0  0  0
 14 50  1  0  0  0  0
 14 51  1  0  0  0  0
 15 27  1  0  0  0  0
 15 52  1  0  0  0  0
 15 53  1  0  0  0  0
 16 14  1  0  0  0  0
 16 54  1  0  0  0  0
 16 55  1  0  0  0  0
 17 15  1  0  0  0  0
 17 56  1  0  0  0  0
 17 57  1  0  0  0  0
 18 21  1  0  0  0  0
 19 26  2  0  0  0  0
 20 13  1  0  0  0  0
 21 10  2  0  0  0  0
 21 12  1  0  0  0  0
 22  7  1  0  0  0  0
 22  9  2  0  0  0  0
 23 20  1  0  0  0  0
 24 23  2  0  0  0  0
 24 25  1  0  0  0  0
 25 18  2  0  0  0  0
 25 19  1  0  0  0  0
 26  4  1  0  0  0  0
 26 10  1  0  0  0  0
 27  3  1  0  0  0  0
 27 58  1  0  0  0  0
 28 16  1  0  0  0  0
 28 17  1  0  0  0  0
 28 29  1  0  0  0  0
 29  5  2  0  0  0  0
 29  6  2  0  0  0  0
 29 22  1  0  0  0  0
M  CHG  1  27   1
M  END
