4ofb_ligand
 OpenBabel08222323353D

226228  0  0  1  0  0  0  0  0999 V2000
  -12.8170   28.7340  -12.5320 C   0  0  0  0  0  0  0  0  0  0  0  0
  -13.8170   28.6490  -11.8220 O   0  0  0  0  0  0  0  0  0  0  0  0
  -12.8250   28.2080  -13.9370 C   0  0  0  0  0  0  0  0  0  0  0  0
  -11.6600   29.2840  -12.1520 N   0  0  0  0  0  0  0  0  0  0  0  0
  -11.3600   29.8710  -10.8440 C   0  0  2  0  0  0  0  0  0  0  0  0
  -11.7920   28.9660   -9.6910 C   0  0  0  0  0  0  0  0  0  0  0  0
  -12.9730   28.8740   -9.3570 O   0  0  0  0  0  0  0  0  0  0  0  0
  -12.0220   31.2530  -10.6750 C   0  0  2  0  0  0  0  0  0  0  0  0
  -11.5240   32.1480  -11.6780 O   0  0  0  0  0  0  0  0  0  0  0  0
  -11.7130   31.8270   -9.2980 C   0  0  0  0  0  0  0  0  0  0  0  0
  -10.8220   28.2980   -9.0820 N   0  0  0  0  0  0  0  0  0  0  0  0
  -11.1100   27.4100   -7.9710 C   0  0  2  0  0  0  0  0  0  0  0  0
  -10.4560   27.9340   -6.6990 C   0  0  0  0  0  0  0  0  0  0  0  0
   -9.5290   28.7380   -6.7570 O   0  0  0  0  0  0  0  0  0  0  0  0
  -10.6290   25.9830   -8.2570 C   0  0  2  0  0  0  0  0  0  0  0  0
   -9.1130   25.9050   -8.1830 C   0  0  0  0  0  0  0  0  0  0  0  0
  -11.1250   25.5130   -9.6160 C   0  0  0  0  0  0  0  0  0  0  0  0
   -8.6060   24.5000   -8.1780 C   0  0  0  0  0  0  0  0  0  0  0  0
  -10.9460   27.4820   -5.5500 N   0  0  0  0  0  0  0  0  0  0  0  0
  -10.4490   27.9660   -4.2680 C   0  0  2  0  0  0  0  0  0  0  0  0
   -9.2760   27.1410   -3.7680 C   0  0  0  0  0  0  0  0  0  0  0  0
   -9.2080   25.9350   -4.0040 O   0  0  0  0  0  0  0  0  0  0  0  0
  -11.5690   27.9610   -3.2320 C   0  0  0  0  0  0  0  0  0  0  0  0
  -12.7410   28.8150   -3.6520 C   0  0  0  0  0  0  0  0  0  0  0  0
  -12.5140   29.7940   -4.3980 O   0  5  0  0  0  0  0  0  0  0  0  0
  -13.8840   28.5080   -3.2440 O   0  0  0  0  0  0  0  0  0  0  0  0
   -8.3580   27.7960   -3.0660 N   0  0  0  0  0  0  0  0  0  0  0  0
   -7.1800   27.1330   -2.5640 C   0  0  2  0  0  0  0  0  0  0  0  0
   -6.9410   27.3740   -1.0810 C   0  0  0  0  0  0  0  0  0  0  0  0
   -6.3480   26.5840   -0.3440 O   0  0  0  0  0  0  0  0  0  0  0  0
   -5.9070   27.5780   -3.3080 C   0  0  0  0  0  0  0  0  0  0  0  0
   -5.7890   26.8530   -4.5960 C   0  0  0  0  0  0  0  0  0  0  0  0
   -5.2780   25.5530   -4.6190 C   0  0  0  0  0  0  0  0  0  0  0  0
   -6.1940   27.4590   -5.7900 C   0  0  0  0  0  0  0  0  0  0  0  0
   -5.1680   24.8560   -5.8160 C   0  0  0  0  0  0  0  0  0  0  0  0
   -6.0870   26.7780   -6.9920 C   0  0  0  0  0  0  0  0  0  0  0  0
   -5.5750   25.4700   -7.0120 C   0  0  0  0  0  0  0  0  0  0  0  0
   -5.4720   24.7990   -8.1840 F   0  0  0  0  0  0  0  0  0  0  0  0
   -7.4270   28.5240   -0.6300 N   0  0  0  0  0  0  0  0  0  0  0  0
   -7.2500   28.9300    0.7580 C   0  0  2  0  0  0  0  0  0  0  0  0
   -8.4070   28.4440    1.6210 C   0  0  0  0  0  0  0  0  0  0  0  0
   -9.0280   29.2240    2.3430 O   0  0  0  0  0  0  0  0  0  0  0  0
   -7.1140   30.4510    0.8550 C   0  0  0  0  0  0  0  0  0  0  0  0
   -5.9130   30.9780    0.0930 C   0  0  0  0  0  0  0  0  0  0  0  0
   -4.7920   30.4750    0.3240 O   0  5  0  0  0  0  0  0  0  0  0  0
   -6.0920   31.8870   -0.7460 O   0  0  0  0  0  0  0  0  0  0  0  0
   -8.6920   27.1490    1.5360 N   0  0  0  0  0  0  0  0  0  0  0  0
   -9.7360   26.5400    2.3450 C   0  0  2  0  0  0  0  0  0  0  0  0
   -9.3910   26.6610    3.8160 C   0  0  0  0  0  0  0  0  0  0  0  0
   -8.2270   26.5490    4.1960 O   0  0  0  0  0  0  0  0  0  0  0  0
   -9.9220   25.0710    1.9770 C   0  0  0  0  0  0  0  0  0  0  0  0
  -10.1080   24.8070    0.5020 C   0  0  0  0  0  0  0  0  0  0  0  0
  -10.0280   23.3330    0.1810 C   0  0  0  0  0  0  0  0  0  0  0  0
  -10.7640   22.5430    0.8120 O   0  5  0  0  0  0  0  0  0  0  0  0
   -9.2170   22.9630   -0.6920 O   0  0  0  0  0  0  0  0  0  0  0  0
  -10.4030   26.8880    4.6430 N   0  0  0  0  0  0  0  0  0  0  0  0
  -10.1910   27.0170    6.0770 C   0  0  2  0  0  0  0  0  0  0  0  0
  -10.1260   25.6420    6.7270 C   0  0  0  0  0  0  0  0  0  0  0  0
  -10.8520   24.7280    6.3380 O   0  0  0  0  0  0  0  0  0  0  0  0
  -11.2980   27.8620    6.7110 C   0  0  0  0  0  0  0  0  0  0  0  0
  -11.1150   28.1060    8.1910 C   0  0  0  0  0  0  0  0  0  0  0  0
  -10.2820   29.1210    8.6530 C   0  0  0  0  0  0  0  0  0  0  0  0
  -11.7750   27.3230    9.1290 C   0  0  0  0  0  0  0  0  0  0  0  0
  -10.1110   29.3480   10.0140 C   0  0  0  0  0  0  0  0  0  0  0  0
  -11.6120   27.5410   10.4880 C   0  0  0  0  0  0  0  0  0  0  0  0
  -10.7810   28.5550   10.9240 C   0  0  0  0  0  0  0  0  0  0  0  0
  -10.6210   28.7680   12.2730 O   0  0  0  0  0  0  0  0  0  0  0  0
   -9.2410   25.5020    7.7090 N   0  0  0  0  0  0  0  0  0  0  0  0
   -9.0710   24.2410    8.4210 C   0  0  2  0  0  0  0  0  0  0  0  0
   -9.5970   24.3530    9.8490 C   0  0  0  0  0  0  0  0  0  0  0  0
   -9.1890   25.2320   10.6070 O   0  0  0  0  0  0  0  0  0  0  0  0
   -7.5980   23.8190    8.4160 C   0  0  0  0  0  0  0  0  0  0  0  0
   -7.1220   23.2670    7.0780 C   0  0  0  0  0  0  0  0  0  0  0  0
   -5.6080   23.3220    6.9510 C   0  0  0  0  0  0  0  0  0  0  0  0
   -5.1250   24.7000    6.9130 N   0  0  0  0  0  0  0  0  0  0  0  0
   -3.8420   25.0470    6.8580 C   0  0  0  0  0  3  0  0  0  0  0  0
   -2.9010   24.1110    6.8450 N   0  0  0  0  0  0  0  0  0  0  0  0
   -3.5000   26.3300    6.8310 N   0  0  0  0  0  0  0  0  0  0  0  0
  -10.5110   23.4570   10.2040 N   0  0  0  0  0  0  0  0  0  0  0  0
  -11.1660   23.5030   11.4900 C   0  0  2  0  0  0  0  0  0  0  0  0
  -10.4070   22.7160   12.5480 C   0  0  0  0  0  0  0  0  0  0  0  0
  -10.5850   21.5190   12.7710 O   0  0  0  0  0  0  0  0  0  0  0  0
  -12.6210   22.9890   11.3860 C   0  0  0  0  0  0  0  0  0  0  0  0
  -13.3610   23.8970   10.4690 C   0  0  0  0  0  0  0  0  0  0  0  0
  -13.9830   25.0400   10.9790 C   0  0  0  0  0  0  0  0  0  0  0  0
  -13.4200   23.6420    9.0930 C   0  0  0  0  0  0  0  0  0  0  0  0
  -14.6690   25.9190   10.1480 C   0  0  0  0  0  0  0  0  0  0  0  0
  -14.0980   24.5090    8.2420 C   0  0  0  0  0  0  0  0  0  0  0  0
  -14.7250   25.6550    8.7690 C   0  0  0  0  0  0  0  0  0  0  0  0
  -15.3910   26.5100    7.9550 F   0  0  0  0  0  0  0  0  0  0  0  0
   -9.5140   23.4270   13.2260 N   0  0  0  0  0  0  0  0  0  0  0  0
   -8.6560   22.8080   14.2280 C   0  0  2  0  0  0  0  0  0  0  0  0
   -9.0810   23.1490   15.6540 C   0  0  0  0  0  0  0  0  0  0  0  0
   -8.2630   23.6230   16.4470 O   0  0  0  0  0  0  0  0  0  0  0  0
   -7.2050   23.2380   14.0290 C   0  0  0  0  0  0  0  0  0  0  0  0
   -6.6380   23.0080   12.6480 C   0  0  0  0  0  0  0  0  0  0  0  0
   -5.1350   23.1560   12.7200 C   0  0  0  0  0  0  0  0  0  0  0  0
   -4.5200   23.4910   11.4440 N   0  0  0  0  0  0  0  0  0  0  0  0
   -4.3960   24.7320   10.9870 C   0  0  0  0  0  3  0  0  0  0  0  0
   -4.8610   25.7530   11.6960 N   0  0  0  0  0  0  0  0  0  0  0  0
   -3.8120   24.9520    9.8200 N   0  0  0  0  0  0  0  0  0  0  0  0
  -10.3490   22.8980   15.9740 N   0  0  0  0  0  0  0  0  0  0  0  0
  -10.9110   23.2280   17.2850 C   0  0  2  0  0  0  0  0  0  0  0  0
  -10.7620   24.7110   17.5990 C   0  0  0  0  0  0  0  0  0  0  0  0
  -11.5770   25.5260   17.1680 O   0  0  0  0  0  0  0  0  0  0  0  0
  -10.2550   22.3990   18.3920 C   0  0  0  0  0  0  0  0  0  0  0  0
  -10.6920   20.9480   18.4340 C   0  0  0  0  0  0  0  0  0  0  0  0
  -12.1470   20.8320   18.8220 C   0  0  0  0  0  0  0  0  0  0  0  0
  -12.6250   19.3950   18.7490 C   0  0  0  0  0  0  0  0  0  0  0  0
  -14.1060   19.3210   18.8860 N   0  3  0  0  0  0  0  0  0  0  0  0
   -9.7090   25.0440   18.3430 N   0  0  0  0  0  0  0  0  0  0  0  0
   -9.4370   26.4120   18.7930 C   0  0  2  0  0  0  0  0  0  0  0  0
  -10.6740   27.0920   19.3870 C   0  0  0  0  0  0  0  0  0  0  0  0
  -10.9020   28.2830   19.1750 O   0  0  0  0  0  0  0  0  0  0  0  0
   -8.8700   27.2930   17.6460 C   0  0  2  0  0  0  0  0  0  0  0  0
   -9.8250   27.3930   16.5820 O   0  0  0  0  0  0  0  0  0  0  0  0
   -7.5680   26.7070   17.1090 C   0  0  0  0  0  0  0  0  0  0  0  0
  -11.4640   26.3290   20.1380 N   0  0  0  0  0  0  0  0  0  0  0  0
  -11.8414   28.3798  -14.3984 H   0  0  0  0  0  0  0  0  0  0  0  0
  -13.5992   28.7292  -14.5193 H   0  0  0  0  0  0  0  0  0  0  0  0
  -13.0402   27.1294  -13.9235 H   0  0  0  0  0  0  0  0  0  0  0  0
  -10.9244   29.2961  -12.8293 H   0  0  0  0  0  0  0  0  0  0  0  0
  -10.2698   30.0036  -10.7827 H   0  0  0  0  0  0  0  0  0  0  0  0
  -13.1111   31.1474  -10.7873 H   0  0  0  0  0  0  0  0  0  0  0  0
  -11.9328   32.9990  -11.5726 H   0  0  0  0  0  0  0  0  0  0  0  0
  -12.1925   32.8116   -9.1952 H   0  0  0  0  0  0  0  0  0  0  0  0
  -10.6246   31.9354   -9.1817 H   0  0  0  0  0  0  0  0  0  0  0  0
  -12.0989   31.1486   -8.5229 H   0  0  0  0  0  0  0  0  0  0  0  0
   -9.8779   28.4078   -9.3929 H   0  0  0  0  0  0  0  0  0  0  0  0
  -12.1995   27.3850   -7.8212 H   0  0  0  0  0  0  0  0  0  0  0  0
  -11.0469   25.3169   -7.4878 H   0  0  0  0  0  0  0  0  0  0  0  0
   -8.7800   26.4022   -7.2600 H   0  0  0  0  0  0  0  0  0  0  0  0
   -8.6911   26.4279   -9.0539 H   0  0  0  0  0  0  0  0  0  0  0  0
  -12.2226   25.5775   -9.6481 H   0  0  0  0  0  0  0  0  0  0  0  0
  -10.8140   24.4706   -9.7794 H   0  0  0  0  0  0  0  0  0  0  0  0
  -10.6971   26.1510  -10.4033 H   0  0  0  0  0  0  0  0  0  0  0  0
   -7.5074   24.5069   -8.1235 H   0  0  0  0  0  0  0  0  0  0  0  0
   -8.9241   23.9921   -9.1004 H   0  0  0  0  0  0  0  0  0  0  0  0
   -9.0130   23.9664   -7.3065 H   0  0  0  0  0  0  0  0  0  0  0  0
  -11.6720   26.7944   -5.5649 H   0  0  0  0  0  0  0  0  0  0  0  0
  -10.1054   29.0020   -4.4042 H   0  0  0  0  0  0  0  0  0  0  0  0
  -11.1731   28.3466   -2.2810 H   0  0  0  0  0  0  0  0  0  0  0  0
  -11.9169   26.9269   -3.0920 H   0  0  0  0  0  0  0  0  0  0  0  0
   -8.4867   28.7704   -2.8816 H   0  0  0  0  0  0  0  0  0  0  0  0
   -7.3184   26.0531   -2.7210 H   0  0  0  0  0  0  0  0  0  0  0  0
   -5.0268   27.3593   -2.6856 H   0  0  0  0  0  0  0  0  0  0  0  0
   -5.9588   28.6594   -3.5028 H   0  0  0  0  0  0  0  0  0  0  0  0
   -4.9642   25.0833   -3.6938 H   0  0  0  0  0  0  0  0  0  0  0  0
   -6.5936   28.4665   -5.7748 H   0  0  0  0  0  0  0  0  0  0  0  0
   -4.7715   23.8472   -5.8268 H   0  0  0  0  0  0  0  0  0  0  0  0
   -6.3978   27.2537   -7.9152 H   0  0  0  0  0  0  0  0  0  0  0  0
   -7.9250   29.1242   -1.2560 H   0  0  0  0  0  0  0  0  0  0  0  0
   -6.3229   28.4738    1.1354 H   0  0  0  0  0  0  0  0  0  0  0  0
   -7.0090   30.7287    1.9142 H   0  0  0  0  0  0  0  0  0  0  0  0
   -8.0232   30.9132    0.4431 H   0  0  0  0  0  0  0  0  0  0  0  0
   -8.1748   26.5778    0.8987 H   0  0  0  0  0  0  0  0  0  0  0  0
  -10.6804   27.0718    2.1573 H   0  0  0  0  0  0  0  0  0  0  0  0
  -10.8098   24.6952    2.5066 H   0  0  0  0  0  0  0  0  0  0  0  0
   -9.0327   24.5184    2.3141 H   0  0  0  0  0  0  0  0  0  0  0  0
   -9.3216   25.3360   -0.0563 H   0  0  0  0  0  0  0  0  0  0  0  0
  -11.0940   25.1853    0.1942 H   0  0  0  0  0  0  0  0  0  0  0  0
  -11.3287   26.9720    4.2743 H   0  0  0  0  0  0  0  0  0  0  0  0
   -9.2296   27.5253    6.2421 H   0  0  0  0  0  0  0  0  0  0  0  0
  -12.2568   27.3438    6.5621 H   0  0  0  0  0  0  0  0  0  0  0  0
  -11.3245   28.8361    6.2008 H   0  0  0  0  0  0  0  0  0  0  0  0
   -9.7573   29.7455    7.9390 H   0  0  0  0  0  0  0  0  0  0  0  0
  -12.4294   26.5271    8.7923 H   0  0  0  0  0  0  0  0  0  0  0  0
   -9.4569   30.1412   10.3578 H   0  0  0  0  0  0  0  0  0  0  0  0
  -12.1342   26.9187   11.2057 H   0  0  0  0  0  0  0  0  0  0  0  0
  -10.0238   29.4942   12.4092 H   0  0  0  0  0  0  0  0  0  0  0  0
   -8.6749   26.2849    7.9671 H   0  0  0  0  0  0  0  0  0  0  0  0
   -9.6537   23.4678    7.8989 H   0  0  0  0  0  0  0  0  0  0  0  0
   -7.4570   23.0420    9.1818 H   0  0  0  0  0  0  0  0  0  0  0  0
   -6.9847   24.6969    8.6671 H   0  0  0  0  0  0  0  0  0  0  0  0
   -7.5690   23.8620    6.2680 H   0  0  0  0  0  0  0  0  0  0  0  0
   -7.4490   22.2206    6.9879 H   0  0  0  0  0  0  0  0  0  0  0  0
   -5.3081   22.8122    6.0236 H   0  0  0  0  0  0  0  0  0  0  0  0
   -5.1578   22.8089    7.8136 H   0  0  0  0  0  0  0  0  0  0  0  0
   -5.8258   25.4547    6.9300 H   0  0  0  0  0  0  0  0  0  0  0  0
   -1.9076   24.3800    6.8024 H   0  0  0  0  0  0  0  0  0  0  0  0
   -3.1641   23.1157    6.8775 H   0  0  0  0  0  0  0  0  0  0  0  0
   -4.2290   27.0576    6.8410 H   0  0  0  0  0  0  0  0  0  0  0  0
   -2.5058   26.5974    6.8000 H   0  0  0  0  0  0  0  0  0  0  0  0
  -10.7525   22.7294    9.5619 H   0  0  0  0  0  0  0  0  0  0  0  0
  -11.1979   24.5546   11.8111 H   0  0  0  0  0  0  0  0  0  0  0  0
  -13.0921   22.9963   12.3800 H   0  0  0  0  0  0  0  0  0  0  0  0
  -12.6281   21.9650   10.9843 H   0  0  0  0  0  0  0  0  0  0  0  0
  -13.9297   25.2451   12.0421 H   0  0  0  0  0  0  0  0  0  0  0  0
  -12.9335   22.7621    8.6879 H   0  0  0  0  0  0  0  0  0  0  0  0
  -15.1544   26.7968   10.5589 H   0  0  0  0  0  0  0  0  0  0  0  0
  -14.1435   24.3036    7.1786 H   0  0  0  0  0  0  0  0  0  0  0  0
   -9.4285   24.4068   13.0454 H   0  0  0  0  0  0  0  0  0  0  0  0
   -8.7201   21.7172   14.1012 H   0  0  0  0  0  0  0  0  0  0  0  0
   -6.5855   22.6796   14.7461 H   0  0  0  0  0  0  0  0  0  0  0  0
   -7.1383   24.3141   14.2469 H   0  0  0  0  0  0  0  0  0  0  0  0
   -7.0514   23.7492   11.9482 H   0  0  0  0  0  0  0  0  0  0  0  0
   -6.8957   21.9954   12.3042 H   0  0  0  0  0  0  0  0  0  0  0  0
   -4.7085   22.2053   13.0724 H   0  0  0  0  0  0  0  0  0  0  0  0
   -4.8983   23.9533   13.4399 H   0  0  0  0  0  0  0  0  0  0  0  0
   -4.1602   22.7213   10.8618 H   0  0  0  0  0  0  0  0  0  0  0  0
   -4.7636   26.7144   11.3394 H   0  0  0  0  0  0  0  0  0  0  0  0
   -5.3193   25.5840   12.6028 H   0  0  0  0  0  0  0  0  0  0  0  0
   -3.4503   24.1612    9.2679 H   0  0  0  0  0  0  0  0  0  0  0  0
   -3.7191   25.9140    9.4638 H   0  0  0  0  0  0  0  0  0  0  0  0
  -10.9404   22.4673   15.2923 H   0  0  0  0  0  0  0  0  0  0  0  0
  -11.9841   22.9872   17.2635 H   0  0  0  0  0  0  0  0  0  0  0  0
  -10.5027   22.8604   19.3593 H   0  0  0  0  0  0  0  0  0  0  0  0
   -9.1657   22.4254   18.2413 H   0  0  0  0  0  0  0  0  0  0  0  0
  -10.0791   20.4089   19.1713 H   0  0  0  0  0  0  0  0  0  0  0  0
  -10.5481   20.5000   17.4397 H   0  0  0  0  0  0  0  0  0  0  0  0
  -12.7504   21.4453   18.1366 H   0  0  0  0  0  0  0  0  0  0  0  0
  -12.2736   21.1996   19.8510 H   0  0  0  0  0  0  0  0  0  0  0  0
  -12.1588   18.8184   19.5615 H   0  0  0  0  0  0  0  0  0  0  0  0
  -12.3310   18.9662   17.7796 H   0  0  0  0  0  0  0  0  0  0  0  0
  -14.4005   18.3583   18.8346 H   0  0  0  0  0  0  0  0  0  0  0  0
  -14.5389   19.8450   18.1416 H   0  0  0  0  0  0  0  0  0  0  0  0
  -14.3811   19.7095   19.7745 H   0  0  0  0  0  0  0  0  0  0  0  0
   -9.0699   24.3223   18.6088 H   0  0  0  0  0  0  0  0  0  0  0  0
   -8.6742   26.3513   19.5832 H   0  0  0  0  0  0  0  0  0  0  0  0
   -8.6694   28.2998   18.0411 H   0  0  0  0  0  0  0  0  0  0  0  0
  -10.0136   26.5252   16.2446 H   0  0  0  0  0  0  0  0  0  0  0  0
   -7.1850   27.3455   16.2993 H   0  0  0  0  0  0  0  0  0  0  0  0
   -7.7541   25.6948   16.7208 H   0  0  0  0  0  0  0  0  0  0  0  0
   -6.8260   26.6582   17.9196 H   0  0  0  0  0  0  0  0  0  0  0  0
  -12.2868   26.7174   20.5529 H   0  0  0  0  0  0  0  0  0  0  0  0
  -11.2350   25.3671   20.2875 H   0  0  0  0  0  0  0  0  0  0  0  0
  1  2  2  0  0  0  0
  1  3  1  0  0  0  0
  1  4  1  0  0  0  0
  3119  1  0  0  0  0
  3120  1  0  0  0  0
  3121  1  0  0  0  0
  4  5  1  0  0  0  0
  4122  1  0  0  0  0
  5  6  1  0  0  0  0
  5  8  1  0  0  0  0
  5123  1  1  0  0  0
  6  7  2  0  0  0  0
  6 11  1  0  0  0  0
  8  9  1  0  0  0  0
  8 10  1  0  0  0  0
  8124  1  6  0  0  0
  9125  1  0  0  0  0
 10126  1  0  0  0  0
 10127  1  0  0  0  0
 10128  1  0  0  0  0
 11 12  1  0  0  0  0
 11129  1  0  0  0  0
 12 13  1  0  0  0  0
 12 15  1  0  0  0  0
 12130  1  1  0  0  0
 13 14  2  0  0  0  0
 13 19  1  0  0  0  0
 15 16  1  0  0  0  0
 15 17  1  0  0  0  0
 15131  1  1  0  0  0
 16 18  1  0  0  0  0
 16132  1  0  0  0  0
 16133  1  0  0  0  0
 17134  1  0  0  0  0
 17135  1  0  0  0  0
 17136  1  0  0  0  0
 18137  1  0  0  0  0
 18138  1  0  0  0  0
 18139  1  0  0  0  0
 19 20  1  0  0  0  0
 19140  1  0  0  0  0
 20 21  1  0  0  0  0
 20 23  1  0  0  0  0
 20141  1  6  0  0  0
 21 22  2  0  0  0  0
 21 27  1  0  0  0  0
 23 24  1  0  0  0  0
 23142  1  0  0  0  0
 23143  1  0  0  0  0
 24 25  1  0  0  0  0
 24 26  2  0  0  0  0
 27 28  1  0  0  0  0
 27144  1  0  0  0  0
 28 29  1  0  0  0  0
 28 31  1  0  0  0  0
 28145  1  6  0  0  0
 29 30  2  0  0  0  0
 29 39  1  0  0  0  0
 31 32  1  0  0  0  0
 31146  1  0  0  0  0
 31147  1  0  0  0  0
 32 33  2  0  0  0  0
 32 34  1  0  0  0  0
 33 35  1  0  0  0  0
 33148  1  0  0  0  0
 34 36  2  0  0  0  0
 34149  1  0  0  0  0
 35 37  2  0  0  0  0
 35150  1  0  0  0  0
 36 37  1  0  0  0  0
 36151  1  0  0  0  0
 37 38  1  0  0  0  0
 39 40  1  0  0  0  0
 39152  1  0  0  0  0
 40 41  1  0  0  0  0
 40 43  1  0  0  0  0
 40153  1  1  0  0  0
 41 42  2  0  0  0  0
 41 47  1  0  0  0  0
 43 44  1  0  0  0  0
 43154  1  0  0  0  0
 43155  1  0  0  0  0
 44 45  1  0  0  0  0
 44 46  2  0  0  0  0
 47 48  1  0  0  0  0
 47156  1  0  0  0  0
 48 49  1  0  0  0  0
 48 51  1  0  0  0  0
 48157  1  6  0  0  0
 49 50  2  0  0  0  0
 49 56  1  0  0  0  0
 51 52  1  0  0  0  0
 51158  1  0  0  0  0
 51159  1  0  0  0  0
 52 53  1  0  0  0  0
 52160  1  0  0  0  0
 52161  1  0  0  0  0
 53 54  1  0  0  0  0
 53 55  2  0  0  0  0
 56 57  1  0  0  0  0
 56162  1  0  0  0  0
 57 58  1  0  0  0  0
 57 60  1  0  0  0  0
 57163  1  1  0  0  0
 58 59  2  0  0  0  0
 58 68  1  0  0  0  0
 60 61  1  0  0  0  0
 60164  1  0  0  0  0
 60165  1  0  0  0  0
 61 62  2  0  0  0  0
 61 63  1  0  0  0  0
 62 64  1  0  0  0  0
 62166  1  0  0  0  0
 63 65  2  0  0  0  0
 63167  1  0  0  0  0
 64 66  2  0  0  0  0
 64168  1  0  0  0  0
 65 66  1  0  0  0  0
 65169  1  0  0  0  0
 66 67  1  0  0  0  0
 67170  1  0  0  0  0
 68 69  1  0  0  0  0
 68171  1  0  0  0  0
 69 70  1  0  0  0  0
 69 72  1  0  0  0  0
 69172  1  6  0  0  0
 70 71  2  0  0  0  0
 70 79  1  0  0  0  0
 72 73  1  0  0  0  0
 72173  1  0  0  0  0
 72174  1  0  0  0  0
 73 74  1  0  0  0  0
 73175  1  0  0  0  0
 73176  1  0  0  0  0
 74 75  1  0  0  0  0
 74177  1  0  0  0  0
 74178  1  0  0  0  0
 75 76  1  0  0  0  0
 75179  1  0  0  0  0
 76 77  1  0  0  0  0
 76 78  1  0  0  0  0
 77180  1  0  0  0  0
 77181  1  0  0  0  0
 78182  1  0  0  0  0
 78183  1  0  0  0  0
 79 80  1  0  0  0  0
 79184  1  0  0  0  0
 80 81  1  0  0  0  0
 80 83  1  0  0  0  0
 80185  1  1  0  0  0
 81 82  2  0  0  0  0
 81 91  1  0  0  0  0
 83 84  1  0  0  0  0
 83186  1  0  0  0  0
 83187  1  0  0  0  0
 84 85  2  0  0  0  0
 84 86  1  0  0  0  0
 85 87  1  0  0  0  0
 85188  1  0  0  0  0
 86 88  2  0  0  0  0
 86189  1  0  0  0  0
 87 89  2  0  0  0  0
 87190  1  0  0  0  0
 88 89  1  0  0  0  0
 88191  1  0  0  0  0
 89 90  1  0  0  0  0
 91 92  1  0  0  0  0
 91192  1  0  0  0  0
 92 93  1  0  0  0  0
 92 95  1  0  0  0  0
 92193  1  6  0  0  0
 93 94  2  0  0  0  0
 93102  1  0  0  0  0
 95 96  1  0  0  0  0
 95194  1  0  0  0  0
 95195  1  0  0  0  0
 96 97  1  0  0  0  0
 96196  1  0  0  0  0
 96197  1  0  0  0  0
 97 98  1  0  0  0  0
 97198  1  0  0  0  0
 97199  1  0  0  0  0
 98 99  1  0  0  0  0
 98200  1  0  0  0  0
 99100  1  0  0  0  0
 99101  1  0  0  0  0
100201  1  0  0  0  0
100202  1  0  0  0  0
101203  1  0  0  0  0
101204  1  0  0  0  0
102103  1  0  0  0  0
102205  1  0  0  0  0
103104  1  0  0  0  0
103106  1  0  0  0  0
103206  1  6  0  0  0
104105  2  0  0  0  0
104111  1  0  0  0  0
106107  1  0  0  0  0
106207  1  0  0  0  0
106208  1  0  0  0  0
107108  1  0  0  0  0
107209  1  0  0  0  0
107210  1  0  0  0  0
108109  1  0  0  0  0
108211  1  0  0  0  0
108212  1  0  0  0  0
109110  1  0  0  0  0
109213  1  0  0  0  0
109214  1  0  0  0  0
110215  1  0  0  0  0
110216  1  0  0  0  0
110217  1  0  0  0  0
111112  1  0  0  0  0
111218  1  0  0  0  0
112113  1  0  0  0  0
112115  1  0  0  0  0
112219  1  1  0  0  0
113114  2  0  0  0  0
113118  1  0  0  0  0
115116  1  0  0  0  0
115117  1  0  0  0  0
115220  1  1  0  0  0
116221  1  0  0  0  0
117222  1  0  0  0  0
117223  1  0  0  0  0
117224  1  0  0  0  0
118225  1  0  0  0  0
118226  1  0  0  0  0
M  CHG  4  25  -1  45  -1  54  -1 110   1
M  END
