4ofl_ligand
 OpenBabel08222323353D

 20 20  0  0  1  0  0  0  0  0999 V2000
   17.1100   23.2300   39.9290 N   0  3  0  0  0  0  0  0  0  0  0  0
   17.7010   24.5660   39.9280 C   0  0  2  0  0  0  0  0  0  0  0  0
   16.8570   25.5500   39.1250 C   0  0  0  0  0  0  0  0  0  0  0  0
   17.0130   26.7660   39.2400 O   0  5  0  0  0  0  0  0  0  0  0  0
   19.1270   24.5230   39.3710 C   0  0  0  0  0  0  0  0  0  0  0  0
   19.2420   23.8470   38.0400 C   0  0  0  0  0  0  0  0  0  0  0  0
   18.2250   23.0910   37.4930 N   0  0  0  0  0  0  0  0  0  0  0  0
   20.2570   23.8100   37.1440 C   0  0  0  0  0  0  0  0  0  0  0  0
   18.6080   22.6210   36.3220 C   0  0  0  0  0  0  0  0  0  0  0  0
   19.8410   23.0440   36.0850 N   0  0  0  0  0  0  0  0  0  0  0  0
   15.9890   25.1470   38.3510 O   0  0  0  0  0  0  0  0  0  0  0  0
   17.6909   22.6061   40.4669 H   0  0  0  0  0  0  0  0  0  0  0  0
   17.0413   22.8922   38.9818 H   0  0  0  0  0  0  0  0  0  0  0  0
   16.1901   23.2698   40.3391 H   0  0  0  0  0  0  0  0  0  0  0  0
   17.7454   24.9206   40.9683 H   0  0  0  0  0  0  0  0  0  0  0  0
   19.7624   23.9834   40.0887 H   0  0  0  0  0  0  0  0  0  0  0  0
   19.4885   25.5566   39.2661 H   0  0  0  0  0  0  0  0  0  0  0  0
   21.2250   24.2984   37.2457 H   0  0  0  0  0  0  0  0  0  0  0  0
   18.0122   21.9922   35.6620 H   0  0  0  0  0  0  0  0  0  0  0  0
   20.3961   22.8323   35.2436 H   0  0  0  0  0  0  0  0  0  0  0  0
  1  2  1  0  0  0  0
  1 12  1  0  0  0  0
  1 13  1  0  0  0  0
  1 14  1  0  0  0  0
  2  3  1  0  0  0  0
  2  5  1  0  0  0  0
  2 15  1  1  0  0  0
  3  4  1  0  0  0  0
  3 11  2  0  0  0  0
  5  6  1  0  0  0  0
  5 16  1  0  0  0  0
  5 17  1  0  0  0  0
  6  7  1  0  0  0  0
  6  8  2  0  0  0  0
  7  9  2  0  0  0  0
  8 10  1  0  0  0  0
  8 18  1  0  0  0  0
  9 10  1  0  0  0  0
  9 19  1  0  0  0  0
 10 20  1  0  0  0  0
M  CHG  2   1   1   4  -1
M  END
