4og6_ligand
 OpenBabel08222323353D

 66 69  0  0  1  0  0  0  0  0999 V2000
  -17.1830    8.9290  -11.2810 C   0  0  0  0  0  0  0  0  0  0  0  0
  -17.8400    8.1740  -12.2630 C   0  0  0  0  0  0  0  0  0  0  0  0
  -19.2020    7.9050  -12.2150 F   0  0  0  0  0  0  0  0  0  0  0  0
  -17.1360    7.6610  -13.3370 C   0  0  0  0  0  0  0  0  0  0  0  0
  -15.7800    7.9020  -13.4280 C   0  0  0  0  0  0  0  0  0  0  0  0
  -15.1160    8.6550  -12.4510 C   0  0  0  0  0  0  0  0  0  0  0  0
  -15.8070    9.1820  -11.3590 C   0  0  0  0  0  0  0  0  0  0  0  0
  -15.1520    9.9490  -10.3550 C   0  0  2  0  0  0  0  0  0  0  0  0
  -14.4510    9.0200   -9.2960 C   0  0  0  0  0  0  0  0  0  0  0  0
  -13.4000    7.9810   -9.7610 C   0  0  0  0  0  0  0  0  0  0  0  0
  -13.2310    6.9850   -8.5620 C   0  0  0  0  0  0  0  0  0  0  0  0
  -14.4930    7.1380   -7.7650 C   0  0  0  0  0  0  0  0  0  0  0  0
  -15.4150    8.0860   -8.5660 C   0  0  0  0  0  0  0  0  0  0  0  0
  -16.1300   10.7430   -9.6850 O   0  0  0  0  0  0  0  0  0  0  0  0
  -14.0800   10.9160  -10.9530 C   0  0  1  0  0  0  0  0  0  0  0  0
  -14.7170   12.0530  -11.7510 C   0  0  0  0  0  0  0  0  0  0  0  0
  -13.6260   12.9070  -12.4170 C   0  0  0  0  0  0  0  0  0  0  0  0
  -13.1600   11.5650   -9.9180 C   0  0  0  0  0  0  0  0  0  0  0  0
  -12.1010   12.4340  -10.6240 C   0  0  0  0  0  0  0  0  0  0  0  0
  -12.6880   13.5110  -11.4490 N   0  3  1  0  0  0  0  0  0  0  0  0
  -11.6230   14.2160  -12.1900 C   0  0  0  0  0  0  0  0  0  0  0  0
  -10.5330   14.7730  -11.2620 C   0  0  0  0  0  0  0  0  0  0  0  0
   -9.6950   15.8330  -11.9980 C   0  0  0  0  0  0  0  0  0  0  0  0
  -10.5610   16.8770  -12.4530 O   0  0  0  0  0  0  0  0  0  0  0  0
   -9.9400   17.9950  -12.9140 C   0  0  0  0  0  0  0  0  0  0  0  0
  -10.7230   19.0780  -13.2950 C   0  0  0  0  0  0  0  0  0  0  0  0
  -10.1300   20.2390  -13.7720 C   0  0  0  0  0  0  0  0  0  0  0  0
   -8.7480   20.3190  -13.8710 C   0  0  0  0  0  0  0  0  0  0  0  0
   -8.1490   21.5230  -14.3650 C   0  0  0  0  0  0  0  0  0  0  0  0
   -7.6840   22.4880  -14.7610 N   0  0  0  0  0  0  0  0  0  0  0  0
   -7.9600   19.2360  -13.4910 C   0  0  0  0  0  0  0  0  0  0  0  0
   -8.5550   18.0710  -13.0120 C   0  0  0  0  0  0  0  0  0  0  0  0
  -17.7501    9.3243  -10.4460 H   0  0  0  0  0  0  0  0  0  0  0  0
  -17.6423    7.0774  -14.0973 H   0  0  0  0  0  0  0  0  0  0  0  0
  -15.2212    7.5032  -14.2669 H   0  0  0  0  0  0  0  0  0  0  0  0
  -14.0504    8.8308  -12.5445 H   0  0  0  0  0  0  0  0  0  0  0  0
  -13.9732    9.6983   -8.5738 H   0  0  0  0  0  0  0  0  0  0  0  0
  -12.4440    8.4764   -9.9860 H   0  0  0  0  0  0  0  0  0  0  0  0
  -13.7563    7.4484  -10.6550 H   0  0  0  0  0  0  0  0  0  0  0  0
  -12.3533    7.2524   -7.9553 H   0  0  0  0  0  0  0  0  0  0  0  0
  -13.1242    5.9526   -8.9263 H   0  0  0  0  0  0  0  0  0  0  0  0
  -14.2683    7.5718   -6.7795 H   0  0  0  0  0  0  0  0  0  0  0  0
  -14.9785    6.1598   -7.6330 H   0  0  0  0  0  0  0  0  0  0  0  0
  -16.0277    7.5200   -9.2831 H   0  0  0  0  0  0  0  0  0  0  0  0
  -16.0717    8.6538   -7.8905 H   0  0  0  0  0  0  0  0  0  0  0  0
  -16.5614   11.3094  -10.3139 H   0  0  0  0  0  0  0  0  0  0  0  0
  -13.4554   10.3196  -11.6343 H   0  0  0  0  0  0  0  0  0  0  0  0
  -15.3106   12.6847  -11.0738 H   0  0  0  0  0  0  0  0  0  0  0  0
  -15.3723   11.6303  -12.5268 H   0  0  0  0  0  0  0  0  0  0  0  0
  -14.1118   13.7149  -12.9838 H   0  0  0  0  0  0  0  0  0  0  0  0
  -13.0540   12.2683  -13.1061 H   0  0  0  0  0  0  0  0  0  0  0  0
  -12.6567   10.7797   -9.3349 H   0  0  0  0  0  0  0  0  0  0  0  0
  -13.7581   12.1958   -9.2439 H   0  0  0  0  0  0  0  0  0  0  0  0
  -11.4944   11.7866  -11.2743 H   0  0  0  0  0  0  0  0  0  0  0  0
  -11.4571   12.8915   -9.8584 H   0  0  0  0  0  0  0  0  0  0  0  0
  -13.1781   14.1635  -10.8573 H   0  0  0  0  0  0  0  0  0  0  0  0
  -12.0734   15.0511  -12.7465 H   0  0  0  0  0  0  0  0  0  0  0  0
  -11.1592   13.5121  -12.8967 H   0  0  0  0  0  0  0  0  0  0  0  0
   -9.8765   13.9515  -10.9394 H   0  0  0  0  0  0  0  0  0  0  0  0
  -11.0060   15.2319  -10.3813 H   0  0  0  0  0  0  0  0  0  0  0  0
   -9.1898   15.3712  -12.8591 H   0  0  0  0  0  0  0  0  0  0  0  0
   -8.9430   16.2502  -11.3122 H   0  0  0  0  0  0  0  0  0  0  0  0
  -11.8026   19.0159  -13.2193 H   0  0  0  0  0  0  0  0  0  0  0  0
  -10.7452   21.0815  -14.0666 H   0  0  0  0  0  0  0  0  0  0  0  0
   -6.8806   19.2994  -13.5681 H   0  0  0  0  0  0  0  0  0  0  0  0
   -7.9412   17.2276  -12.7170 H   0  0  0  0  0  0  0  0  0  0  0  0
  1  2  2  0  0  0  0
  1  7  1  0  0  0  0
  1 33  1  0  0  0  0
  2  3  1  0  0  0  0
  2  4  1  0  0  0  0
  4  5  2  0  0  0  0
  4 34  1  0  0  0  0
  5  6  1  0  0  0  0
  5 35  1  0  0  0  0
  6  7  2  0  0  0  0
  6 36  1  0  0  0  0
  7  8  1  0  0  0  0
  8  9  1  0  0  0  0
  8 14  1  1  0  0  0
  8 15  1  0  0  0  0
  9 10  1  0  0  0  0
  9 13  1  0  0  0  0
  9 37  1  0  0  0  0
 10 11  1  0  0  0  0
 10 38  1  0  0  0  0
 10 39  1  0  0  0  0
 11 12  1  0  0  0  0
 11 40  1  0  0  0  0
 11 41  1  0  0  0  0
 12 13  1  0  0  0  0
 12 42  1  0  0  0  0
 12 43  1  0  0  0  0
 13 44  1  0  0  0  0
 13 45  1  0  0  0  0
 14 46  1  0  0  0  0
 15 16  1  0  0  0  0
 15 18  1  0  0  0  0
 15 47  1  6  0  0  0
 16 17  1  0  0  0  0
 16 48  1  0  0  0  0
 16 49  1  0  0  0  0
 17 20  1  0  0  0  0
 17 50  1  0  0  0  0
 17 51  1  0  0  0  0
 18 19  1  0  0  0  0
 18 52  1  0  0  0  0
 18 53  1  0  0  0  0
 19 20  1  0  0  0  0
 19 54  1  0  0  0  0
 19 55  1  0  0  0  0
 20 21  1  0  0  0  0
 20 56  1  1  0  0  0
 21 22  1  0  0  0  0
 21 57  1  0  0  0  0
 21 58  1  0  0  0  0
 22 23  1  0  0  0  0
 22 59  1  0  0  0  0
 22 60  1  0  0  0  0
 23 24  1  0  0  0  0
 23 61  1  0  0  0  0
 23 62  1  0  0  0  0
 24 25  1  0  0  0  0
 25 26  2  0  0  0  0
 25 32  1  0  0  0  0
 26 27  1  0  0  0  0
 26 63  1  0  0  0  0
 27 28  2  0  0  0  0
 27 64  1  0  0  0  0
 28 29  1  0  0  0  0
 28 31  1  0  0  0  0
 29 30  3  0  0  0  0
 31 32  2  0  0  0  0
 31 65  1  0  0  0  0
 32 66  1  0  0  0  0
M  CHG  1  20   1
M  END
