4og7_ligand
 OpenBabel08222323353D

 69 72  0  0  1  0  0  0  0  0999 V2000
  -10.5320   19.1560  -13.1580 C   0  0  0  0  0  0  0  0  0  0  0  0
  -10.0510   20.3970  -13.5670 C   0  0  0  0  0  0  0  0  0  0  0  0
   -8.6830   20.5970  -13.6800 C   0  0  0  0  0  0  0  0  0  0  0  0
   -8.1540   22.2090  -14.2480 S   0  0  0  0  0  0  0  0  0  0  0  0
   -8.2720   22.1950  -15.7240 O   0  0  0  0  0  0  0  0  0  0  0  0
   -6.7790   22.3800  -13.6800 O   0  0  0  0  0  0  0  0  0  0  0  0
   -9.1440   23.2950  -13.6840 N   0  0  0  0  0  0  0  0  0  0  0  0
   -7.7840   19.5760  -13.3710 C   0  0  0  0  0  0  0  0  0  0  0  0
   -8.2740   18.3390  -12.9890 C   0  0  0  0  0  0  0  0  0  0  0  0
   -9.6670   18.1310  -12.8580 C   0  0  0  0  0  0  0  0  0  0  0  0
  -10.2170   16.9590  -12.4950 O   0  0  0  0  0  0  0  0  0  0  0  0
   -9.3850   15.8420  -12.0990 C   0  0  0  0  0  0  0  0  0  0  0  0
  -10.3580   14.9320  -11.3600 C   0  0  0  0  0  0  0  0  0  0  0  0
  -11.1420   14.1630  -12.3970 C   0  0  0  0  0  0  0  0  0  0  0  0
  -12.0540   13.1460  -11.7450 N   0  3  2  0  0  0  0  0  0  0  0  0
  -11.4890   11.9550  -11.0140 C   0  0  0  0  0  0  0  0  0  0  0  0
  -12.5720   11.2430  -10.1720 C   0  0  0  0  0  0  0  0  0  0  0  0
  -13.0120   12.7470  -12.7520 C   0  0  0  0  0  0  0  0  0  0  0  0
  -14.1830   11.9850  -12.1060 C   0  0  0  0  0  0  0  0  0  0  0  0
  -13.6240   10.7700  -11.2940 C   0  0  2  0  0  0  0  0  0  0  0  0
  -14.7560    9.8860  -10.6580 C   0  0  2  0  0  0  0  0  0  0  0  0
  -15.7040    9.3460  -11.7670 C   0  0  0  0  0  0  0  0  0  0  0  0
  -15.1730    8.3510  -12.7450 C   0  0  0  0  0  0  0  0  0  0  0  0
  -16.3980    8.1180  -13.6020 C   0  0  0  0  0  0  0  0  0  0  0  0
  -17.4500    7.9640  -12.5240 C   0  0  0  0  0  0  0  0  0  0  0  0
  -16.9190    8.6750  -11.2780 C   0  0  0  0  0  0  0  0  0  0  0  0
  -15.4530   10.7800   -9.8400 O   0  0  0  0  0  0  0  0  0  0  0  0
  -14.2510    8.8040   -9.8910 C   0  0  0  0  0  0  0  0  0  0  0  0
  -13.2650    8.0210  -10.4200 N   0  0  0  0  0  0  0  0  0  0  0  0
  -12.7440    6.9060   -9.7400 C   0  0  0  0  0  0  0  0  0  0  0  0
  -13.2070    6.6110   -8.4690 C   0  0  0  0  0  0  0  0  0  0  0  0
  -14.2670    7.3850   -7.9350 C   0  0  0  0  0  0  0  0  0  0  0  0
  -14.7550    8.5040   -8.6170 C   0  0  0  0  0  0  0  0  0  0  0  0
  -11.6010   18.9965  -13.0753 H   0  0  0  0  0  0  0  0  0  0  0  0
  -10.7408   21.2013  -13.7955 H   0  0  0  0  0  0  0  0  0  0  0  0
   -9.0028   24.2610  -13.9008 H   0  0  0  0  0  0  0  0  0  0  0  0
   -9.9141   23.0190  -13.1089 H   0  0  0  0  0  0  0  0  0  0  0  0
   -6.7155   19.7491  -13.4293 H   0  0  0  0  0  0  0  0  0  0  0  0
   -7.5864   17.5252  -12.7891 H   0  0  0  0  0  0  0  0  0  0  0  0
   -8.5711   16.1711  -11.4362 H   0  0  0  0  0  0  0  0  0  0  0  0
   -8.9600   15.3350  -12.9778 H   0  0  0  0  0  0  0  0  0  0  0  0
  -11.0415   15.5350  -10.7442 H   0  0  0  0  0  0  0  0  0  0  0  0
   -9.8032   14.2341  -10.7157 H   0  0  0  0  0  0  0  0  0  0  0  0
  -10.4403   13.6410  -13.0641 H   0  0  0  0  0  0  0  0  0  0  0  0
  -11.7502   14.8675  -12.9833 H   0  0  0  0  0  0  0  0  0  0  0  0
  -12.5597   13.6566  -11.0381 H   0  0  0  0  0  0  0  0  0  0  0  0
  -10.6829   12.2942  -10.3468 H   0  0  0  0  0  0  0  0  0  0  0  0
  -11.0824   11.2443  -11.7486 H   0  0  0  0  0  0  0  0  0  0  0  0
  -13.0384   11.9352   -9.4555 H   0  0  0  0  0  0  0  0  0  0  0  0
  -12.1533   10.3819   -9.6306 H   0  0  0  0  0  0  0  0  0  0  0  0
  -12.5161   12.0948  -13.4860 H   0  0  0  0  0  0  0  0  0  0  0  0
  -13.3987   13.6429  -13.2597 H   0  0  0  0  0  0  0  0  0  0  0  0
  -14.8622   11.6210  -12.8910 H   0  0  0  0  0  0  0  0  0  0  0  0
  -14.7309   12.6578  -11.4300 H   0  0  0  0  0  0  0  0  0  0  0  0
  -13.0791   10.1329  -12.0062 H   0  0  0  0  0  0  0  0  0  0  0  0
  -16.0096   10.2360  -12.3366 H   0  0  0  0  0  0  0  0  0  0  0  0
  -14.8460    7.4269  -12.2459 H   0  0  0  0  0  0  0  0  0  0  0  0
  -14.3402    8.7649  -13.3325 H   0  0  0  0  0  0  0  0  0  0  0  0
  -16.3022    7.2073  -14.2115 H   0  0  0  0  0  0  0  0  0  0  0  0
  -16.6074    8.9770  -14.2565 H   0  0  0  0  0  0  0  0  0  0  0  0
  -17.6174    6.8984  -12.3086 H   0  0  0  0  0  0  0  0  0  0  0  0
  -18.3944    8.4252  -12.8487 H   0  0  0  0  0  0  0  0  0  0  0  0
  -17.6486    9.4062  -10.8999 H   0  0  0  0  0  0  0  0  0  0  0  0
  -16.6785    7.9528  -10.4840 H   0  0  0  0  0  0  0  0  0  0  0  0
  -14.8717   11.1080   -9.1639 H   0  0  0  0  0  0  0  0  0  0  0  0
  -11.9881    6.2842  -10.2058 H   0  0  0  0  0  0  0  0  0  0  0  0
  -12.7674    5.8041   -7.8939 H   0  0  0  0  0  0  0  0  0  0  0  0
  -14.7060    7.1056   -6.9840 H   0  0  0  0  0  0  0  0  0  0  0  0
  -15.5144    9.1326   -8.1661 H   0  0  0  0  0  0  0  0  0  0  0  0
  1  2  2  0  0  0  0
  1 10  1  0  0  0  0
  1 34  1  0  0  0  0
  2  3  1  0  0  0  0
  2 35  1  0  0  0  0
  3  4  1  0  0  0  0
  3  8  2  0  0  0  0
  4  5  2  0  0  0  0
  4  6  2  0  0  0  0
  4  7  1  0  0  0  0
  7 36  1  0  0  0  0
  7 37  1  0  0  0  0
  8  9  1  0  0  0  0
  8 38  1  0  0  0  0
  9 10  2  0  0  0  0
  9 39  1  0  0  0  0
 10 11  1  0  0  0  0
 11 12  1  0  0  0  0
 12 13  1  0  0  0  0
 12 40  1  0  0  0  0
 12 41  1  0  0  0  0
 13 14  1  0  0  0  0
 13 42  1  0  0  0  0
 13 43  1  0  0  0  0
 14 15  1  0  0  0  0
 14 44  1  0  0  0  0
 14 45  1  0  0  0  0
 15 16  1  0  0  0  0
 15 18  1  0  0  0  0
 15 46  1  1  0  0  0
 16 17  1  0  0  0  0
 16 47  1  0  0  0  0
 16 48  1  0  0  0  0
 17 20  1  0  0  0  0
 17 49  1  0  0  0  0
 17 50  1  0  0  0  0
 18 19  1  0  0  0  0
 18 51  1  0  0  0  0
 18 52  1  0  0  0  0
 19 20  1  0  0  0  0
 19 53  1  0  0  0  0
 19 54  1  0  0  0  0
 20 21  1  0  0  0  0
 20 55  1  6  0  0  0
 21 22  1  0  0  0  0
 21 27  1  1  0  0  0
 21 28  1  0  0  0  0
 22 23  1  0  0  0  0
 22 26  1  0  0  0  0
 22 56  1  0  0  0  0
 23 24  1  0  0  0  0
 23 57  1  0  0  0  0
 23 58  1  0  0  0  0
 24 25  1  0  0  0  0
 24 59  1  0  0  0  0
 24 60  1  0  0  0  0
 25 26  1  0  0  0  0
 25 61  1  0  0  0  0
 25 62  1  0  0  0  0
 26 63  1  0  0  0  0
 26 64  1  0  0  0  0
 27 65  1  0  0  0  0
 28 29  2  0  0  0  0
 28 33  1  0  0  0  0
 29 30  1  0  0  0  0
 30 31  2  0  0  0  0
 30 66  1  0  0  0  0
 31 32  1  0  0  0  0
 31 67  1  0  0  0  0
 32 33  2  0  0  0  0
 32 68  1  0  0  0  0
 33 69  1  0  0  0  0
M  CHG  1  15   1
M  END
