4og8_ligand
 OpenBabel08222323353D

 68 71  0  0  1  0  0  0  0  0999 V2000
   10.7820   19.1740   13.4280 C   0  0  0  0  0  0  0  0  0  0  0  0
   10.2110   20.3510   13.9100 C   0  0  0  0  0  0  0  0  0  0  0  0
    8.8390   20.4500   13.9770 C   0  0  0  0  0  0  0  0  0  0  0  0
    8.2260   21.6560   14.5220 C   0  0  0  0  0  0  0  0  0  0  0  0
    7.7610   22.5890   14.9450 N   0  0  0  0  0  0  0  0  0  0  0  0
    8.0590   19.4040   13.5550 C   0  0  0  0  0  0  0  0  0  0  0  0
    8.6080   18.1900   13.1160 C   0  0  0  0  0  0  0  0  0  0  0  0
    9.9800   18.1220   13.0120 C   0  0  0  0  0  0  0  0  0  0  0  0
   10.6340   17.0280   12.5580 O   0  0  0  0  0  0  0  0  0  0  0  0
    9.8200   15.9040   12.1510 C   0  0  0  0  0  0  0  0  0  0  0  0
   10.7640   15.0530   11.2760 C   0  0  0  0  0  0  0  0  0  0  0  0
   11.6810   14.3510   12.2700 C   0  0  0  0  0  0  0  0  0  0  0  0
   12.7470   13.5620   11.5280 N   0  3  1  0  0  0  0  0  0  0  0  0
   13.6020   12.8520   12.5240 C   0  0  0  0  0  0  0  0  0  0  0  0
   14.7510   12.0840   11.9470 C   0  0  0  0  0  0  0  0  0  0  0  0
   12.1590   12.5020   10.6870 C   0  0  0  0  0  0  0  0  0  0  0  0
   13.2570   11.7460    9.9150 C   0  0  0  0  0  0  0  0  0  0  0  0
   14.1710   11.0540   10.9750 C   0  0  1  0  0  0  0  0  0  0  0  0
   15.2610   10.0850   10.4250 C   0  0  1  0  0  0  0  0  0  0  0  0
   14.6030    9.0950    9.3890 C   0  0  0  0  0  0  0  0  0  0  0  0
   13.5070    8.2210    9.8380 C   0  0  0  0  0  0  0  0  0  0  0  0
   13.2770    7.2290    8.6950 C   0  0  0  0  0  0  0  0  0  0  0  0
   14.6050    7.2520    7.8880 C   0  0  0  0  0  0  0  0  0  0  0  0
   15.5970    8.1450    8.6890 C   0  0  0  0  0  0  0  0  0  0  0  0
   16.2640   10.9470    9.7180 N   0  3  0  0  0  0  0  0  0  0  0  0
   15.9320    9.3250   11.5220 C   0  0  0  0  0  0  0  0  0  0  0  0
   15.2110    8.7410   12.5550 C   0  0  0  0  0  0  0  0  0  0  0  0
   15.8060    8.0190   13.5720 C   0  0  0  0  0  0  0  0  0  0  0  0
   17.1570    7.7940   13.5730 C   0  0  0  0  0  0  0  0  0  0  0  0
   17.9020    8.3100   12.5450 C   0  0  0  0  0  0  0  0  0  0  0  0
   17.3040    9.0650   11.5260 C   0  0  0  0  0  0  0  0  0  0  0  0
   11.8608   19.0805   13.3781 H   0  0  0  0  0  0  0  0  0  0  0  0
   10.8379   21.1764   14.2275 H   0  0  0  0  0  0  0  0  0  0  0  0
    6.9812   19.5192   13.5609 H   0  0  0  0  0  0  0  0  0  0  0  0
    7.9796   17.3419   12.8692 H   0  0  0  0  0  0  0  0  0  0  0  0
    8.9490   16.2424   11.5707 H   0  0  0  0  0  0  0  0  0  0  0  0
    9.4778   15.3324   13.0263 H   0  0  0  0  0  0  0  0  0  0  0  0
   11.3456   15.6930   10.5963 H   0  0  0  0  0  0  0  0  0  0  0  0
   10.1928   14.3186   10.6892 H   0  0  0  0  0  0  0  0  0  0  0  0
   11.0869   13.6649   12.8916 H   0  0  0  0  0  0  0  0  0  0  0  0
   12.1647   15.1018   12.9121 H   0  0  0  0  0  0  0  0  0  0  0  0
   13.2990   14.1886   10.9635 H   0  0  0  0  0  0  0  0  0  0  0  0
   12.9650   12.1464   13.0774 H   0  0  0  0  0  0  0  0  0  0  0  0
   14.0087   13.6015   13.2189 H   0  0  0  0  0  0  0  0  0  0  0  0
   15.3033   11.5738   12.7499 H   0  0  0  0  0  0  0  0  0  0  0  0
   15.4283   12.7660   11.4121 H   0  0  0  0  0  0  0  0  0  0  0  0
   11.4609   12.9568    9.9688 H   0  0  0  0  0  0  0  0  0  0  0  0
   11.6152   11.7927   11.3281 H   0  0  0  0  0  0  0  0  0  0  0  0
   13.8470   12.4510    9.3110 H   0  0  0  0  0  0  0  0  0  0  0  0
   12.8033   10.9901    9.2572 H   0  0  0  0  0  0  0  0  0  0  0  0
   13.4974   10.4184   11.5686 H   0  0  0  0  0  0  0  0  0  0  0  0
   14.1784    9.7503    8.6143 H   0  0  0  0  0  0  0  0  0  0  0  0
   12.5971    8.8106   10.0236 H   0  0  0  0  0  0  0  0  0  0  0  0
   13.7926    7.6883   10.7571 H   0  0  0  0  0  0  0  0  0  0  0  0
   12.4338    7.5495    8.0655 H   0  0  0  0  0  0  0  0  0  0  0  0
   13.0785    6.2212    9.0886 H   0  0  0  0  0  0  0  0  0  0  0  0
   14.4341    7.6773    6.8880 H   0  0  0  0  0  0  0  0  0  0  0  0
   15.0068    6.2328    7.7892 H   0  0  0  0  0  0  0  0  0  0  0  0
   16.1794    7.5579    9.4143 H   0  0  0  0  0  0  0  0  0  0  0  0
   16.2826    8.6904    8.0239 H   0  0  0  0  0  0  0  0  0  0  0  0
   16.6865   11.5811   10.3779 H   0  0  0  0  0  0  0  0  0  0  0  0
   15.8025   11.4744    8.9935 H   0  0  0  0  0  0  0  0  0  0  0  0
   16.9773   10.3650    9.3075 H   0  0  0  0  0  0  0  0  0  0  0  0
   14.1332    8.8566   12.5641 H   0  0  0  0  0  0  0  0  0  0  0  0
   15.1967    7.6263   14.3780 H   0  0  0  0  0  0  0  0  0  0  0  0
   17.6249    7.2225   14.3664 H   0  0  0  0  0  0  0  0  0  0  0  0
   18.9709    8.1316   12.5192 H   0  0  0  0  0  0  0  0  0  0  0  0
   17.9200    9.4553   10.7240 H   0  0  0  0  0  0  0  0  0  0  0  0
  1  2  2  0  0  0  0
  1  8  1  0  0  0  0
  1 32  1  0  0  0  0
  2  3  1  0  0  0  0
  2 33  1  0  0  0  0
  3  4  1  0  0  0  0
  3  6  2  0  0  0  0
  4  5  3  0  0  0  0
  6  7  1  0  0  0  0
  6 34  1  0  0  0  0
  7  8  2  0  0  0  0
  7 35  1  0  0  0  0
  8  9  1  0  0  0  0
  9 10  1  0  0  0  0
 10 11  1  0  0  0  0
 10 36  1  0  0  0  0
 10 37  1  0  0  0  0
 11 12  1  0  0  0  0
 11 38  1  0  0  0  0
 11 39  1  0  0  0  0
 12 13  1  0  0  0  0
 12 40  1  0  0  0  0
 12 41  1  0  0  0  0
 13 14  1  0  0  0  0
 13 16  1  0  0  0  0
 13 42  1  6  0  0  0
 14 15  1  0  0  0  0
 14 43  1  0  0  0  0
 14 44  1  0  0  0  0
 15 18  1  0  0  0  0
 15 45  1  0  0  0  0
 15 46  1  0  0  0  0
 16 17  1  0  0  0  0
 16 47  1  0  0  0  0
 16 48  1  0  0  0  0
 17 18  1  0  0  0  0
 17 49  1  0  0  0  0
 17 50  1  0  0  0  0
 18 19  1  0  0  0  0
 18 51  1  1  0  0  0
 19 20  1  0  0  0  0
 19 25  1  6  0  0  0
 19 26  1  0  0  0  0
 20 21  1  0  0  0  0
 20 24  1  0  0  0  0
 20 52  1  0  0  0  0
 21 22  1  0  0  0  0
 21 53  1  0  0  0  0
 21 54  1  0  0  0  0
 22 23  1  0  0  0  0
 22 55  1  0  0  0  0
 22 56  1  0  0  0  0
 23 24  1  0  0  0  0
 23 57  1  0  0  0  0
 23 58  1  0  0  0  0
 24 59  1  0  0  0  0
 24 60  1  0  0  0  0
 25 61  1  0  0  0  0
 25 62  1  0  0  0  0
 25 63  1  0  0  0  0
 26 27  2  0  0  0  0
 26 31  1  0  0  0  0
 27 28  1  0  0  0  0
 27 64  1  0  0  0  0
 28 29  2  0  0  0  0
 28 65  1  0  0  0  0
 29 30  1  0  0  0  0
 29 66  1  0  0  0  0
 30 31  2  0  0  0  0
 30 67  1  0  0  0  0
 31 68  1  0  0  0  0
M  CHG  2  13   1  25   1
M  END
