4ogt_ligand
 OpenBabel08222323353D

 79 83  0  0  1  0  0  0  0  0999 V2000
  -12.5400   23.7530   -2.4070 C   0  0  0  0  0  0  0  0  0  0  0  0
  -13.5440   23.1710   -1.6290 C   0  0  0  0  0  0  0  0  0  0  0  0
  -15.1650   23.0720   -2.2480 Cl  0  0  0  0  0  0  0  0  0  0  0  0
  -13.2560   22.6740   -0.3580 C   0  0  0  0  0  0  0  0  0  0  0  0
  -11.9570   22.7590    0.1350 C   0  0  0  0  0  0  0  0  0  0  0  0
  -10.9570   23.3390   -0.6490 C   0  0  0  0  0  0  0  0  0  0  0  0
  -11.2360   23.8390   -1.9210 C   0  0  0  0  0  0  0  0  0  0  0  0
  -10.1130   24.4780   -2.7680 C   0  0  1  0  0  0  0  0  0  0  0  0
   -9.2820   25.3540   -1.9830 O   0  0  0  0  0  0  0  0  0  0  0  0
   -8.2990   26.0120   -2.7990 C   0  0  1  0  0  0  0  0  0  0  0  0
   -8.7340   27.2590   -3.5740 C   0  0  0  0  0  0  0  0  0  0  0  0
   -9.1580   28.4970   -2.7550 C   0  0  0  0  0  0  0  0  0  0  0  0
   -8.2730   29.5740   -2.7330 C   0  0  0  0  0  0  0  0  0  0  0  0
   -8.5900   30.7230   -2.0250 C   0  0  0  0  0  0  0  0  0  0  0  0
   -9.8090   30.7720   -1.3700 C   0  0  0  0  0  0  0  0  0  0  0  0
  -10.1850   32.0350   -0.5950 C   0  0  0  0  0  0  0  0  0  0  0  0
  -11.3140   32.0780   -0.0570 O   0  5  0  0  0  0  0  0  0  0  0  0
   -9.3560   32.9730   -0.5890 O   0  0  0  0  0  0  0  0  0  0  0  0
  -10.6680   29.6750   -1.4320 C   0  0  0  0  0  0  0  0  0  0  0  0
  -10.3360   28.5820   -2.1160 N   0  0  0  0  0  0  0  0  0  0  0  0
   -7.2520   26.4550   -1.7760 C   0  0  0  0  0  0  0  0  0  0  0  0
   -7.5070   25.0460   -3.6760 C   0  0  0  0  0  0  0  0  0  0  0  0
   -6.4360   25.4430   -4.1340 O   0  0  0  0  0  0  0  0  0  0  0  0
   -7.9650   23.7400   -3.9320 N   0  0  0  0  0  0  0  0  0  0  0  0
   -7.0610   22.7890   -4.6520 C   0  0  1  0  0  0  0  0  0  0  0  0
   -6.7390   23.0730   -6.1250 C   0  0  0  0  0  0  0  0  0  0  0  0
   -6.8780   21.8620   -7.0350 C   0  0  0  0  0  0  0  0  0  0  0  0
   -7.8970   23.0120   -7.1160 C   0  0  0  0  0  0  0  0  0  0  0  0
   -5.7460   22.5670   -3.8730 C   0  0  0  0  0  0  0  0  0  0  0  0
   -5.9940   21.8330   -2.2280 S   0  0  0  0  0  0  0  0  0  0  0  0
   -6.6700   20.5050   -2.3830 O   0  0  0  0  0  0  0  0  0  0  0  0
   -6.8550   22.7320   -1.3900 O   0  0  0  0  0  0  0  0  0  0  0  0
   -4.3890   21.6230   -1.3690 C   0  0  0  0  0  0  0  0  0  0  0  0
   -4.6480   20.9110   -0.0470 C   0  0  0  0  0  0  0  0  0  0  0  0
   -3.7600   22.9940   -1.1170 C   0  0  0  0  0  0  0  0  0  0  0  0
   -3.4640   20.7660   -2.2240 C   0  0  0  0  0  0  0  0  0  0  0  0
   -9.2510   23.3060   -3.3250 C   0  0  2  0  0  0  0  0  0  0  0  0
  -10.1150   22.4140   -4.2400 C   0  0  0  0  0  0  0  0  0  0  0  0
  -10.7640   22.9960   -5.3250 C   0  0  0  0  0  0  0  0  0  0  0  0
  -11.5660   22.2250   -6.1580 C   0  0  0  0  0  0  0  0  0  0  0  0
  -11.7300   20.8730   -5.8910 C   0  0  0  0  0  0  0  0  0  0  0  0
  -12.7360   19.9160   -6.9260 Cl  0  0  0  0  0  0  0  0  0  0  0  0
  -11.0900   20.2880   -4.8050 C   0  0  0  0  0  0  0  0  0  0  0  0
  -10.2860   21.0610   -3.9720 C   0  0  0  0  0  0  0  0  0  0  0  0
  -12.7757   24.1391   -3.3921 H   0  0  0  0  0  0  0  0  0  0  0  0
  -14.0388   22.2244    0.2421 H   0  0  0  0  0  0  0  0  0  0  0  0
  -11.7227   22.3771    1.1221 H   0  0  0  0  0  0  0  0  0  0  0  0
   -9.9463   23.4017   -0.2621 H   0  0  0  0  0  0  0  0  0  0  0  0
  -10.5553   25.0495   -3.5973 H   0  0  0  0  0  0  0  0  0  0  0  0
   -9.5886   26.9731   -4.2048 H   0  0  0  0  0  0  0  0  0  0  0  0
   -7.8910   27.5601   -4.2132 H   0  0  0  0  0  0  0  0  0  0  0  0
   -7.3340   29.5128   -3.2712 H   0  0  0  0  0  0  0  0  0  0  0  0
   -7.9024   31.5601   -1.9853 H   0  0  0  0  0  0  0  0  0  0  0  0
  -11.6203   29.7128   -0.9155 H   0  0  0  0  0  0  0  0  0  0  0  0
   -6.4345   26.9800   -2.2919 H   0  0  0  0  0  0  0  0  0  0  0  0
   -6.8506   25.5725   -1.2564 H   0  0  0  0  0  0  0  0  0  0  0  0
   -7.7177   27.1312   -1.0440 H   0  0  0  0  0  0  0  0  0  0  0  0
   -7.5970   21.8284   -4.6500 H   0  0  0  0  0  0  0  0  0  0  0  0
   -5.9258   23.8054   -6.2362 H   0  0  0  0  0  0  0  0  0  0  0  0
   -7.1771   20.8899   -6.6160 H   0  0  0  0  0  0  0  0  0  0  0  0
   -6.1607   21.7033   -7.8537 H   0  0  0  0  0  0  0  0  0  0  0  0
   -7.9088   23.6774   -7.9918 H   0  0  0  0  0  0  0  0  0  0  0  0
   -8.9251   22.8640   -6.7541 H   0  0  0  0  0  0  0  0  0  0  0  0
   -5.2462   23.5390   -3.7490 H   0  0  0  0  0  0  0  0  0  0  0  0
   -5.1021   21.8959   -4.4604 H   0  0  0  0  0  0  0  0  0  0  0  0
   -3.6967   20.7734    0.4878 H   0  0  0  0  0  0  0  0  0  0  0  0
   -5.1040   19.9293   -0.2424 H   0  0  0  0  0  0  0  0  0  0  0  0
   -5.3301   21.5163    0.5680 H   0  0  0  0  0  0  0  0  0  0  0  0
   -2.7968   22.8663   -0.6014 H   0  0  0  0  0  0  0  0  0  0  0  0
   -4.4339   23.5971   -0.4908 H   0  0  0  0  0  0  0  0  0  0  0  0
   -3.5968   23.5047   -2.0775 H   0  0  0  0  0  0  0  0  0  0  0  0
   -2.5005   20.6399   -1.7085 H   0  0  0  0  0  0  0  0  0  0  0  0
   -3.2993   21.2590   -3.1934 H   0  0  0  0  0  0  0  0  0  0  0  0
   -3.9242   19.7804   -2.3873 H   0  0  0  0  0  0  0  0  0  0  0  0
   -8.9739   22.6855   -2.4601 H   0  0  0  0  0  0  0  0  0  0  0  0
  -10.6434   24.0553   -5.5212 H   0  0  0  0  0  0  0  0  0  0  0  0
  -12.0601   22.6766   -7.0106 H   0  0  0  0  0  0  0  0  0  0  0  0
  -11.2168   19.2299   -4.6066 H   0  0  0  0  0  0  0  0  0  0  0  0
   -9.7951   20.6094   -3.1175 H   0  0  0  0  0  0  0  0  0  0  0  0
  1  2  2  0  0  0  0
  1  7  1  0  0  0  0
  1 45  1  0  0  0  0
  2  3  1  0  0  0  0
  2  4  1  0  0  0  0
  4  5  2  0  0  0  0
  4 46  1  0  0  0  0
  5  6  1  0  0  0  0
  5 47  1  0  0  0  0
  6  7  2  0  0  0  0
  6 48  1  0  0  0  0
  7  8  1  0  0  0  0
  8  9  1  0  0  0  0
  8 37  1  0  0  0  0
  8 49  1  6  0  0  0
  9 10  1  0  0  0  0
 10 11  1  6  0  0  0
 10 21  1  0  0  0  0
 10 22  1  0  0  0  0
 11 12  1  0  0  0  0
 11 50  1  0  0  0  0
 11 51  1  0  0  0  0
 12 13  2  0  0  0  0
 12 20  1  0  0  0  0
 13 14  1  0  0  0  0
 13 52  1  0  0  0  0
 14 15  2  0  0  0  0
 14 53  1  0  0  0  0
 15 16  1  0  0  0  0
 15 19  1  0  0  0  0
 16 17  1  0  0  0  0
 16 18  2  0  0  0  0
 19 20  2  0  0  0  0
 19 54  1  0  0  0  0
 21 55  1  0  0  0  0
 21 56  1  0  0  0  0
 21 57  1  0  0  0  0
 22 23  2  0  0  0  0
 22 24  1  0  0  0  0
 24 25  1  0  0  0  0
 24 37  1  0  0  0  0
 25 26  1  0  0  0  0
 25 29  1  0  0  0  0
 25 58  1  1  0  0  0
 26 27  1  0  0  0  0
 26 28  1  0  0  0  0
 26 59  1  0  0  0  0
 27 28  1  0  0  0  0
 27 60  1  0  0  0  0
 27 61  1  0  0  0  0
 28 62  1  0  0  0  0
 28 63  1  0  0  0  0
 29 30  1  0  0  0  0
 29 64  1  0  0  0  0
 29 65  1  0  0  0  0
 30 31  2  0  0  0  0
 30 32  2  0  0  0  0
 30 33  1  0  0  0  0
 33 34  1  0  0  0  0
 33 35  1  0  0  0  0
 33 36  1  0  0  0  0
 34 66  1  0  0  0  0
 34 67  1  0  0  0  0
 34 68  1  0  0  0  0
 35 69  1  0  0  0  0
 35 70  1  0  0  0  0
 35 71  1  0  0  0  0
 36 72  1  0  0  0  0
 36 73  1  0  0  0  0
 36 74  1  0  0  0  0
 37 38  1  0  0  0  0
 37 75  1  1  0  0  0
 38 39  2  0  0  0  0
 38 44  1  0  0  0  0
 39 40  1  0  0  0  0
 39 76  1  0  0  0  0
 40 41  2  0  0  0  0
 40 77  1  0  0  0  0
 41 42  1  0  0  0  0
 41 43  1  0  0  0  0
 43 44  2  0  0  0  0
 43 78  1  0  0  0  0
 44 79  1  0  0  0  0
M  CHG  1  17  -1
M  END
