4ok6_ligand
 OpenBabel08222323353D

 40 42  0  0  0  0  0  0  0  0999 V2000
  -19.6760  -29.7790   26.4920 O   0  0  0  0  0  0  0  0  0  0  0  0
  -18.6300  -29.8240   27.1210 N   0  0  0  0  0  0  0  0  0  0  0  0
  -17.8400  -28.8790   27.0610 O   0  0  0  0  0  0  0  0  0  0  0  0
  -18.3370  -31.0240   27.9540 C   0  0  0  0  0  0  0  0  0  0  0  0
  -17.1650  -31.7470   27.7850 C   0  0  0  0  0  0  0  0  0  0  0  0
  -16.8980  -32.8570   28.5750 C   0  0  0  0  0  0  0  0  0  0  0  0
  -17.8240  -33.2260   29.5440 C   0  0  0  0  0  0  0  0  0  0  0  0
  -17.6010  -34.2990   30.3500 O   0  0  0  0  0  0  0  0  0  0  0  0
  -16.2320  -34.6410   30.5700 C   0  0  0  0  0  0  0  0  0  0  0  0
  -19.2480  -31.3990   28.9280 C   0  0  0  0  0  0  0  0  0  0  0  0
  -18.9860  -32.4960   29.7180 C   0  0  0  0  0  0  0  0  0  0  0  0
  -19.9560  -32.9460   30.7730 C   0  0  0  0  0  0  0  0  0  0  0  0
  -19.5060  -32.5230   32.1000 N   0  0  0  0  0  0  0  0  0  0  0  0
  -19.9320  -33.1150   33.2570 C   0  0  0  0  0  0  0  0  0  0  0  0
  -20.7820  -34.1790   33.5180 C   0  0  0  0  0  0  0  0  0  0  0  0
  -21.0110  -34.5630   34.8220 C   0  0  0  0  0  0  0  0  0  0  0  0
  -19.3090  -32.4410   34.3230 C   0  0  0  0  0  0  0  0  0  0  0  0
  -19.5500  -32.8450   35.6360 C   0  0  0  0  0  0  0  0  0  0  0  0
  -20.3890  -33.8970   35.8710 C   0  0  0  0  0  0  0  0  0  0  0  0
  -18.4800  -31.3950   33.7210 C   0  0  0  0  0  0  0  0  0  0  0  0
  -18.6470  -31.4870   32.3870 C   0  0  0  0  0  0  0  0  0  0  0  0
  -17.6360  -30.4040   34.4810 C   0  0  0  0  0  0  0  0  0  0  0  0
  -16.8320  -31.1060   35.5480 C   0  0  0  0  0  0  0  0  0  0  0  0
  -16.8630  -30.6270   36.8000 O   0  5  0  0  0  0  0  0  0  0  0  0
  -16.1850  -32.1010   35.2710 O   0  0  0  0  0  0  0  0  0  0  0  0
  -16.4507  -31.4422   27.0287 H   0  0  0  0  0  0  0  0  0  0  0  0
  -15.9849  -33.4251   28.4388 H   0  0  0  0  0  0  0  0  0  0  0  0
  -16.1749  -35.5176   31.2320 H   0  0  0  0  0  0  0  0  0  0  0  0
  -15.7130  -33.7925   31.0396 H   0  0  0  0  0  0  0  0  0  0  0  0
  -15.7537  -34.8764   29.6078 H   0  0  0  0  0  0  0  0  0  0  0  0
  -20.1615  -30.8323   29.0674 H   0  0  0  0  0  0  0  0  0  0  0  0
  -20.0323  -34.0431   30.7498 H   0  0  0  0  0  0  0  0  0  0  0  0
  -20.9429  -32.5054   30.5684 H   0  0  0  0  0  0  0  0  0  0  0  0
  -21.2634  -34.7055   32.7018 H   0  0  0  0  0  0  0  0  0  0  0  0
  -21.6805  -35.3897   35.0304 H   0  0  0  0  0  0  0  0  0  0  0  0
  -19.0757  -32.3287   36.4627 H   0  0  0  0  0  0  0  0  0  0  0  0
  -20.5722  -34.2169   36.8904 H   0  0  0  0  0  0  0  0  0  0  0  0
  -18.1745  -30.8404   31.6490 H   0  0  0  0  0  0  0  0  0  0  0  0
  -18.2911  -29.6573   34.9535 H   0  0  0  0  0  0  0  0  0  0  0  0
  -16.9506  -29.9012   33.7829 H   0  0  0  0  0  0  0  0  0  0  0  0
  1  2  2  0  0  0  0
  2  3  2  0  0  0  0
  2  4  1  0  0  0  0
  4  5  2  0  0  0  0
  4 10  1  0  0  0  0
  5  6  1  0  0  0  0
  5 26  1  0  0  0  0
  6  7  2  0  0  0  0
  6 27  1  0  0  0  0
  7  8  1  0  0  0  0
  7 11  1  0  0  0  0
  8  9  1  0  0  0  0
  9 28  1  0  0  0  0
  9 29  1  0  0  0  0
  9 30  1  0  0  0  0
 10 11  2  0  0  0  0
 10 31  1  0  0  0  0
 11 12  1  0  0  0  0
 12 13  1  0  0  0  0
 12 32  1  0  0  0  0
 12 33  1  0  0  0  0
 13 14  1  0  0  0  0
 13 21  1  0  0  0  0
 14 15  2  0  0  0  0
 14 17  1  0  0  0  0
 15 16  1  0  0  0  0
 15 34  1  0  0  0  0
 16 19  2  0  0  0  0
 16 35  1  0  0  0  0
 17 18  2  0  0  0  0
 17 20  1  0  0  0  0
 18 19  1  0  0  0  0
 18 36  1  0  0  0  0
 19 37  1  0  0  0  0
 20 21  2  0  0  0  0
 20 22  1  0  0  0  0
 21 38  1  0  0  0  0
 22 23  1  0  0  0  0
 22 39  1  0  0  0  0
 22 40  1  0  0  0  0
 23 24  1  0  0  0  0
 23 25  2  0  0  0  0
M  CHG  1  24  -1
M  END
