4okp_ligand
 OpenBabel08222323353D

 24 24  0  0  1  0  0  0  0  0999 V2000
   63.0310    6.1080   48.1280 O   0  5  0  0  0  0  0  0  0  0  0  0
   64.1420    6.5290   48.5260 C   0  0  0  0  0  0  0  0  0  0  0  0
   65.0180    5.8460   49.0970 O   0  0  0  0  0  0  0  0  0  0  0  0
   64.4480    8.0220   48.3490 C   0  0  1  0  0  0  0  0  0  0  0  0
   65.7570    8.3050   48.9530 N   0  3  0  0  0  0  0  0  0  0  0  0
   64.4460    8.4600   46.8690 C   0  0  2  0  0  0  0  0  0  0  0  0
   65.4620    7.6130   46.1940 N   0  0  0  0  0  0  0  0  0  0  0  0
   64.7360   10.1310   46.3670 S   0  0  0  0  0  0  0  0  0  0  0  0
   64.5280    9.8200   44.5710 C   0  0  0  0  0  0  0  0  0  0  0  0
   65.4520    8.8820   44.1520 C   0  0  0  0  0  0  0  0  0  0  0  0
   65.9270    8.9890   42.8530 C   0  0  0  0  0  0  0  0  0  0  0  0
   65.7610    7.7310   44.8910 C   0  0  0  0  0  0  0  0  0  0  0  0
   66.7140    6.8500   44.3910 C   0  0  0  0  0  0  0  0  0  0  0  0
   66.3710    5.7030   44.0290 O   0  5  0  0  0  0  0  0  0  0  0  0
   67.9210    7.1740   44.3750 O   0  0  0  0  0  0  0  0  0  0  0  0
   63.6766    8.6003   48.8787 H   0  0  0  0  0  0  0  0  0  0  0  0
   65.7508    8.0165   49.9188 H   0  0  0  0  0  0  0  0  0  0  0  0
   65.9453    9.2938   48.8989 H   0  0  0  0  0  0  0  0  0  0  0  0
   66.4730    7.7989   48.4558 H   0  0  0  0  0  0  0  0  0  0  0  0
   63.4495    8.2030   46.4804 H   0  0  0  0  0  0  0  0  0  0  0  0
   64.6817   10.7578   44.0170 H   0  0  0  0  0  0  0  0  0  0  0  0
   63.5122    9.4436   44.3800 H   0  0  0  0  0  0  0  0  0  0  0  0
   66.6564    8.2720   42.4792 H   0  0  0  0  0  0  0  0  0  0  0  0
   65.5705    9.7900   42.2071 H   0  0  0  0  0  0  0  0  0  0  0  0
  1  2  1  0  0  0  0
  2  3  2  0  0  0  0
  2  4  1  0  0  0  0
  4  5  1  0  0  0  0
  4  6  1  0  0  0  0
  4 16  1  1  0  0  0
  5 17  1  0  0  0  0
  5 18  1  0  0  0  0
  5 19  1  0  0  0  0
  6  7  1  0  0  0  0
  6  8  1  0  0  0  0
  6 20  1  6  0  0  0
  7 12  2  0  0  0  0
  8  9  1  0  0  0  0
  9 10  1  0  0  0  0
  9 21  1  0  0  0  0
  9 22  1  0  0  0  0
 10 11  2  0  0  0  0
 10 12  1  0  0  0  0
 11 23  1  0  0  0  0
 11 24  1  0  0  0  0
 12 13  1  0  0  0  0
 13 14  1  0  0  0  0
 13 15  2  0  0  0  0
M  CHG  3   1  -1   5   1  14  -1
M  END
