4old_ligand
 OpenBabel08222323353D

 23 23  0  0  1  0  0  0  0  0999 V2000
   23.6970    7.0070   15.0090 O   0  5  0  0  0  0  0  0  0  0  0  0
   22.4610    6.8400   15.2050 C   0  0  0  0  0  0  0  0  0  0  0  0
   21.8130    7.4530   16.0360 O   0  0  0  0  0  0  0  0  0  0  0  0
   21.6410    5.7810   14.4070 C   0  0  1  0  0  0  0  0  0  0  0  0
   20.2190    5.9210   14.9460 N   0  3  0  0  0  0  0  0  0  0  0  0
   22.0070    5.8030   12.8140 C   0  0  2  0  0  0  0  0  0  0  0  0
   20.9240    5.1840   11.9980 N   0  0  0  0  0  0  0  0  0  0  0  0
   23.6310    5.1910   12.2890 S   0  0  0  0  0  0  0  0  0  0  0  0
   23.4730    5.4950   10.4760 C   0  0  0  0  0  0  0  0  0  0  0  0
   22.3150    4.9200    9.9840 C   0  0  0  0  0  0  0  0  0  0  0  0
   21.1210    4.8120   10.7210 C   0  0  0  0  0  0  0  0  0  0  0  0
   20.0800    4.0780   10.1230 C   0  0  0  0  0  0  0  0  0  0  0  0
   20.1410    3.8050    8.8650 O   0  5  0  0  0  0  0  0  0  0  0  0
   19.1810    3.5600   10.8520 O   0  0  0  0  0  0  0  0  0  0  0  0
   21.9757    4.7866   14.7375 H   0  0  0  0  0  0  0  0  0  0  0  0
   20.2357    5.8789   15.9530 H   0  0  0  0  0  0  0  0  0  0  0  0
   19.6485    5.1711   14.5878 H   0  0  0  0  0  0  0  0  0  0  0  0
   19.8342    6.8054   14.6531 H   0  0  0  0  0  0  0  0  0  0  0  0
   22.0142    6.8705   12.5489 H   0  0  0  0  0  0  0  0  0  0  0  0
   24.3407    5.0587    9.9595 H   0  0  0  0  0  0  0  0  0  0  0  0
   23.4441    6.5792   10.2926 H   0  0  0  0  0  0  0  0  0  0  0  0
   22.5873    3.8919    9.7031 H   0  0  0  0  0  0  0  0  0  0  0  0
   22.0579    5.4913    9.0799 H   0  0  0  0  0  0  0  0  0  0  0  0
  1  2  1  0  0  0  0
  2  3  2  0  0  0  0
  2  4  1  0  0  0  0
  4  5  1  0  0  0  0
  4  6  1  0  0  0  0
  4 15  1  1  0  0  0
  5 16  1  0  0  0  0
  5 17  1  0  0  0  0
  5 18  1  0  0  0  0
  6  7  1  0  0  0  0
  6  8  1  0  0  0  0
  6 19  1  6  0  0  0
  7 11  2  0  0  0  0
  8  9  1  0  0  0  0
  9 10  1  0  0  0  0
  9 20  1  0  0  0  0
  9 21  1  0  0  0  0
 10 11  1  0  0  0  0
 10 22  1  0  0  0  0
 10 23  1  0  0  0  0
 11 12  1  0  0  0  0
 12 13  1  0  0  0  0
 12 14  2  0  0  0  0
M  CHG  3   1  -1   5   1  13  -1
M  END
