4omd_ligand
 OpenBabel08222323353D

102103  0  0  1  0  0  0  0  0999 V2000
   33.1150   25.6080   -8.8480 C   0  0  0  0  0  0  0  0  0  0  0  0
   34.1610   25.8380   -7.9300 C   0  0  0  0  0  0  0  0  0  0  0  0
   35.1010   24.8410   -7.6050 C   0  0  0  0  0  0  0  0  0  0  0  0
   34.9900   23.5780   -8.2150 C   0  0  0  0  0  0  0  0  0  0  0  0
   33.9480   23.3140   -9.1440 C   0  0  0  0  0  0  0  0  0  0  0  0
   33.0130   24.3400   -9.4530 C   0  0  0  0  0  0  0  0  0  0  0  0
   32.1230   26.6980   -9.1690 C   0  0  0  0  0  0  0  0  0  0  0  0
   30.8990   26.7320   -8.2790 C   0  0  0  0  0  0  0  0  0  0  0  0
   29.9480   25.9540   -8.4210 O   0  0  0  0  0  0  0  0  0  0  0  0
   30.9550   27.6610   -7.3280 N   0  0  0  0  0  0  0  0  0  0  0  0
   29.8700   27.8520   -6.3660 C   0  0  2  0  0  0  0  0  0  0  0  0
   29.3230   29.2740   -6.4840 C   0  0  0  0  0  0  0  0  0  0  0  0
   30.0820   30.2380   -6.4560 O   0  0  0  0  0  0  0  0  0  0  0  0
   30.3790   27.5780   -4.9480 C   0  0  0  0  0  0  0  0  0  0  0  0
   30.8650   26.1440   -4.7410 C   0  0  0  0  0  0  0  0  0  0  0  0
   29.7160   25.1740   -4.8490 C   0  0  0  0  0  0  0  0  0  0  0  0
   30.1320   23.7830   -4.7320 N   0  0  0  0  0  0  0  0  0  0  0  0
   30.2660   22.9630   -5.7670 C   0  0  0  0  0  3  0  0  0  0  0  0
   30.6400   21.7030   -5.5800 N   0  0  0  0  0  0  0  0  0  0  0  0
   30.0250   23.4060   -6.9940 N   0  0  0  0  0  0  0  0  0  0  0  0
   28.0060   29.4110   -6.6110 N   0  0  0  0  0  0  0  0  0  0  0  0
   27.3960   30.7300   -6.7830 C   0  0  2  0  0  0  0  0  0  0  0  0
   26.3760   31.0960   -5.7170 C   0  0  0  0  0  0  0  0  0  0  0  0
   25.7950   30.2200   -5.0710 O   0  0  0  0  0  0  0  0  0  0  0  0
   26.6880   30.8060   -8.1450 C   0  0  0  0  0  0  0  0  0  0  0  0
   27.6500   30.4060   -9.2420 C   0  0  0  0  0  0  0  0  0  0  0  0
   25.4760   29.8710   -8.1620 C   0  0  0  0  0  0  0  0  0  0  0  0
   26.1550   32.3960   -5.5440 N   0  0  0  0  0  0  0  0  0  0  0  0
   25.1790   32.8750   -4.5750 C   0  0  2  0  0  0  0  0  0  0  0  0
   23.8120   32.4570   -5.1170 C   0  0  0  0  0  0  0  0  0  0  0  0
   23.5520   32.5850   -6.3150 O   0  0  0  0  0  0  0  0  0  0  0  0
   25.2560   34.3960   -4.4480 C   0  0  0  0  0  0  0  0  0  0  0  0
   26.5780   34.9210   -3.9080 C   0  0  0  0  0  0  0  0  0  0  0  0
   26.5740   36.4400   -3.8790 C   0  0  0  0  0  0  0  0  0  0  0  0
   27.8230   37.0210   -3.3960 N   0  0  0  0  0  0  0  0  0  0  0  0
   28.9990   36.8870   -4.0060 C   0  0  0  0  0  3  0  0  0  0  0  0
   29.0840   36.1790   -5.1260 N   0  0  0  0  0  0  0  0  0  0  0  0
   30.0870   37.4720   -3.5050 N   0  0  0  0  0  0  0  0  0  0  0  0
   22.9430   31.9660   -4.2370 N   0  0  0  0  0  0  0  0  0  0  0  0
   21.6110   31.5180   -4.6180 C   0  0  0  0  0  0  0  0  0  0  0  0
   21.6050   30.0270   -4.8000 C   0  0  0  0  0  0  0  0  0  0  0  0
   21.3350   29.1770   -3.7090 C   0  0  0  0  0  0  0  0  0  0  0  0
   21.4630   27.7700   -3.8310 C   0  0  0  0  0  0  0  0  0  0  0  0
   21.8560   27.1860   -5.0470 C   0  0  0  0  0  0  0  0  0  0  0  0
   21.9940   25.6930   -5.1710 C   0  0  0  0  0  3  0  0  0  0  0  0
   21.3830   24.9280   -4.2690 N   0  0  0  0  0  0  0  0  0  0  0  0
   22.7170   25.1400   -6.1370 N   0  0  0  0  0  0  0  0  0  0  0  0
   22.1150   28.0280   -6.1470 C   0  0  0  0  0  0  0  0  0  0  0  0
   21.9860   29.4520   -6.0260 C   0  0  0  0  0  0  0  0  0  0  0  0
   34.2438   26.8116   -7.4605 H   0  0  0  0  0  0  0  0  0  0  0  0
   35.8965   25.0432   -6.8969 H   0  0  0  0  0  0  0  0  0  0  0  0
   35.7054   22.8000   -7.9742 H   0  0  0  0  0  0  0  0  0  0  0  0
   33.8665   22.3400   -9.6127 H   0  0  0  0  0  0  0  0  0  0  0  0
   32.2150   24.1446  -10.1602 H   0  0  0  0  0  0  0  0  0  0  0  0
   31.7863   26.5581  -10.2068 H   0  0  0  0  0  0  0  0  0  0  0  0
   32.6380   27.6657   -9.0778 H   0  0  0  0  0  0  0  0  0  0  0  0
   31.7636   28.2464   -7.2692 H   0  0  0  0  0  0  0  0  0  0  0  0
   29.0612   27.1421   -6.5938 H   0  0  0  0  0  0  0  0  0  0  0  0
   29.5600   27.7735   -4.2402 H   0  0  0  0  0  0  0  0  0  0  0  0
   31.2147   28.2622   -4.7398 H   0  0  0  0  0  0  0  0  0  0  0  0
   31.3193   26.0567   -3.7430 H   0  0  0  0  0  0  0  0  0  0  0  0
   31.6155   25.9023   -5.5080 H   0  0  0  0  0  0  0  0  0  0  0  0
   29.2303   25.3135   -5.8260 H   0  0  0  0  0  0  0  0  0  0  0  0
   28.9959   25.3930   -4.0469 H   0  0  0  0  0  0  0  0  0  0  0  0
   30.3339   23.4144   -3.7916 H   0  0  0  0  0  0  0  0  0  0  0  0
   30.7424   21.0710   -6.3869 H   0  0  0  0  0  0  0  0  0  0  0  0
   30.8278   21.3574   -4.6281 H   0  0  0  0  0  0  0  0  0  0  0  0
   29.7347   24.3833   -7.1410 H   0  0  0  0  0  0  0  0  0  0  0  0
   30.1281   22.7727   -7.7997 H   0  0  0  0  0  0  0  0  0  0  0  0
   27.4229   28.5989   -6.5886 H   0  0  0  0  0  0  0  0  0  0  0  0
   28.2029   31.4771   -6.7556 H   0  0  0  0  0  0  0  0  0  0  0  0
   26.3497   31.8383   -8.3181 H   0  0  0  0  0  0  0  0  0  0  0  0
   27.1401   30.4615  -10.2151 H   0  0  0  0  0  0  0  0  0  0  0  0
   27.9970   29.3768   -9.0681 H   0  0  0  0  0  0  0  0  0  0  0  0
   28.5123   31.0889   -9.2405 H   0  0  0  0  0  0  0  0  0  0  0  0
   24.7770   30.1623   -7.3642 H   0  0  0  0  0  0  0  0  0  0  0  0
   25.8092   28.8357   -7.9975 H   0  0  0  0  0  0  0  0  0  0  0  0
   24.9708   29.9432   -9.1365 H   0  0  0  0  0  0  0  0  0  0  0  0
   26.6691   33.0575   -6.0900 H   0  0  0  0  0  0  0  0  0  0  0  0
   25.3583   32.4153   -3.5919 H   0  0  0  0  0  0  0  0  0  0  0  0
   24.4541   34.7247   -3.7706 H   0  0  0  0  0  0  0  0  0  0  0  0
   25.0954   34.8320   -5.4450 H   0  0  0  0  0  0  0  0  0  0  0  0
   27.3971   34.5733   -4.5546 H   0  0  0  0  0  0  0  0  0  0  0  0
   26.7294   34.5397   -2.8874 H   0  0  0  0  0  0  0  0  0  0  0  0
   25.7586   36.7726   -3.2199 H   0  0  0  0  0  0  0  0  0  0  0  0
   26.3927   36.8064   -4.9002 H   0  0  0  0  0  0  0  0  0  0  0  0
   27.7926   37.5710   -2.5257 H   0  0  0  0  0  0  0  0  0  0  0  0
   29.9919   36.0731   -5.6007 H   0  0  0  0  0  0  0  0  0  0  0  0
   28.2420   35.7356   -5.5202 H   0  0  0  0  0  0  0  0  0  0  0  0
   30.0225   38.0215   -2.6362 H   0  0  0  0  0  0  0  0  0  0  0  0
   30.9922   37.3745   -3.9867 H   0  0  0  0  0  0  0  0  0  0  0  0
   23.2153   31.9022   -3.2769 H   0  0  0  0  0  0  0  0  0  0  0  0
   21.3198   32.0017   -5.5620 H   0  0  0  0  0  0  0  0  0  0  0  0
   20.8947   31.7919   -3.8294 H   0  0  0  0  0  0  0  0  0  0  0  0
   21.0249   29.6050   -2.7626 H   0  0  0  0  0  0  0  0  0  0  0  0
   21.2551   27.1373   -2.9757 H   0  0  0  0  0  0  0  0  0  0  0  0
   21.4588   23.9025   -4.3273 H   0  0  0  0  0  0  0  0  0  0  0  0
   20.8344   25.3616   -3.5128 H   0  0  0  0  0  0  0  0  0  0  0  0
   23.1881   25.7355   -6.8329 H   0  0  0  0  0  0  0  0  0  0  0  0
   22.8069   24.1153   -6.1907 H   0  0  0  0  0  0  0  0  0  0  0  0
   22.4149   27.5953   -7.0946 H   0  0  0  0  0  0  0  0  0  0  0  0
   22.1828   30.0869   -6.8823 H   0  0  0  0  0  0  0  0  0  0  0  0
  1  2  2  0  0  0  0
  1  6  1  0  0  0  0
  1  7  1  0  0  0  0
  2  3  1  0  0  0  0
  2 50  1  0  0  0  0
  3  4  2  0  0  0  0
  3 51  1  0  0  0  0
  4  5  1  0  0  0  0
  4 52  1  0  0  0  0
  5  6  2  0  0  0  0
  5 53  1  0  0  0  0
  6 54  1  0  0  0  0
  7  8  1  0  0  0  0
  7 55  1  0  0  0  0
  7 56  1  0  0  0  0
  8  9  2  0  0  0  0
  8 10  1  0  0  0  0
 10 11  1  0  0  0  0
 10 57  1  0  0  0  0
 11 12  1  0  0  0  0
 11 14  1  0  0  0  0
 11 58  1  6  0  0  0
 12 13  2  0  0  0  0
 12 21  1  0  0  0  0
 14 15  1  0  0  0  0
 14 59  1  0  0  0  0
 14 60  1  0  0  0  0
 15 16  1  0  0  0  0
 15 61  1  0  0  0  0
 15 62  1  0  0  0  0
 16 17  1  0  0  0  0
 16 63  1  0  0  0  0
 16 64  1  0  0  0  0
 17 18  1  0  0  0  0
 17 65  1  0  0  0  0
 18 19  1  0  0  0  0
 18 20  1  0  0  0  0
 19 66  1  0  0  0  0
 19 67  1  0  0  0  0
 20 68  1  0  0  0  0
 20 69  1  0  0  0  0
 21 22  1  0  0  0  0
 21 70  1  0  0  0  0
 22 23  1  0  0  0  0
 22 25  1  0  0  0  0
 22 71  1  1  0  0  0
 23 24  2  0  0  0  0
 23 28  1  0  0  0  0
 25 26  1  0  0  0  0
 25 27  1  0  0  0  0
 25 72  1  0  0  0  0
 26 73  1  0  0  0  0
 26 74  1  0  0  0  0
 26 75  1  0  0  0  0
 27 76  1  0  0  0  0
 27 77  1  0  0  0  0
 27 78  1  0  0  0  0
 28 29  1  0  0  0  0
 28 79  1  0  0  0  0
 29 30  1  0  0  0  0
 29 32  1  0  0  0  0
 29 80  1  1  0  0  0
 30 31  2  0  0  0  0
 30 39  1  0  0  0  0
 32 33  1  0  0  0  0
 32 81  1  0  0  0  0
 32 82  1  0  0  0  0
 33 34  1  0  0  0  0
 33 83  1  0  0  0  0
 33 84  1  0  0  0  0
 34 35  1  0  0  0  0
 34 85  1  0  0  0  0
 34 86  1  0  0  0  0
 35 36  1  0  0  0  0
 35 87  1  0  0  0  0
 36 37  1  0  0  0  0
 36 38  1  0  0  0  0
 37 88  1  0  0  0  0
 37 89  1  0  0  0  0
 38 90  1  0  0  0  0
 38 91  1  0  0  0  0
 39 40  1  0  0  0  0
 39 92  1  0  0  0  0
 40 41  1  0  0  0  0
 40 93  1  0  0  0  0
 40 94  1  0  0  0  0
 41 42  2  0  0  0  0
 41 49  1  0  0  0  0
 42 43  1  0  0  0  0
 42 95  1  0  0  0  0
 43 44  2  0  0  0  0
 43 96  1  0  0  0  0
 44 45  1  0  0  0  0
 44 48  1  0  0  0  0
 45 46  1  0  0  0  0
 45 47  1  0  0  0  0
 46 97  1  0  0  0  0
 46 98  1  0  0  0  0
 47 99  1  0  0  0  0
 47100  1  0  0  0  0
 48 49  2  0  0  0  0
 48101  1  0  0  0  0
 49102  1  0  0  0  0
M  END
