4onf_ligand
 OpenBabel08222323353D

 94 94  0  0  1  0  0  0  0  0999 V2000
    3.2780    4.3280   33.4460 N   0  3  0  0  0  0  0  0  0  0  0  0
    2.6010    5.5700   33.8320 C   0  0  2  0  0  0  0  0  0  0  0  0
    1.3140    5.3270   34.6040 C   0  0  0  0  0  0  0  0  0  0  0  0
    0.9050    6.1770   35.3890 O   0  0  0  0  0  0  0  0  0  0  0  0
    2.2740    6.4430   32.6160 C   0  0  0  0  0  0  0  0  0  0  0  0
    3.4740    7.2130   32.1000 C   0  0  0  0  0  0  0  0  0  0  0  0
    4.5690    7.1390   32.7100 O   0  5  0  0  0  0  0  0  0  0  0  0
    3.3070    7.9060   31.0800 O   0  0  0  0  0  0  0  0  0  0  0  0
    0.6600    4.1920   34.3470 N   0  0  0  0  0  0  0  0  0  0  0  0
   -0.5980    3.8450   35.0250 C   0  0  2  0  0  0  0  0  0  0  0  0
   -0.4910    3.9800   36.5470 C   0  0  0  0  0  0  0  0  0  0  0  0
   -1.4510    4.3670   37.2230 O   0  0  0  0  0  0  0  0  0  0  0  0
   -1.0150    2.4400   34.6620 C   0  0  0  0  0  0  0  0  0  0  0  0
    0.6880    3.6730   37.0780 N   0  0  0  0  0  0  0  0  0  0  0  0
    0.8990    3.6380   38.5270 C   0  0  2  0  0  0  0  0  0  0  0  0
    0.6940    5.0050   39.1820 C   0  0  0  0  0  0  0  0  0  0  0  0
    0.4350    5.1010   40.3860 O   0  0  0  0  0  0  0  0  0  0  0  0
    2.3040    3.1070   38.8520 C   0  0  0  0  0  0  0  0  0  0  0  0
    3.4500    3.9560   38.2890 C   0  0  0  0  0  0  0  0  0  0  0  0
    3.8620    3.5720   36.8630 C   0  0  0  0  0  0  0  0  0  0  0  0
    3.0850    2.8780   36.1610 O   0  5  0  0  0  0  0  0  0  0  0  0
    4.9840    3.9490   36.4580 O   0  0  0  0  0  0  0  0  0  0  0  0
    0.8050    6.0660   38.3930 N   0  0  0  0  0  0  0  0  0  0  0  0
    0.6530    7.4140   38.9370 C   0  0  2  0  0  0  0  0  0  0  0  0
   -0.7990    7.8410   39.0120 C   0  0  0  0  0  0  0  0  0  0  0  0
   -1.1160    8.8610   39.6110 O   0  0  0  0  0  0  0  0  0  0  0  0
    1.4380    8.4170   38.1040 C   0  0  0  0  0  0  0  0  0  0  0  0
    2.9190    8.1380   38.0790 C   0  0  0  0  0  0  0  0  0  0  0  0
    3.6790    8.2850   39.2290 C   0  0  0  0  0  0  0  0  0  0  0  0
    3.5350    7.7230   36.9200 C   0  0  0  0  0  0  0  0  0  0  0  0
    5.0450    8.0180   39.2240 C   0  0  0  0  0  0  0  0  0  0  0  0
    4.9020    7.4600   36.8950 C   0  0  0  0  0  0  0  0  0  0  0  0
    5.6530    7.6110   38.0500 C   0  0  0  0  0  0  0  0  0  0  0  0
   -1.6800    7.0540   38.4110 N   0  0  0  0  0  0  0  0  0  0  0  0
   -3.0840    7.4440   38.3300 C   0  0  2  0  0  0  0  0  0  0  0  0
   -4.0120    6.6140   39.2290 C   0  0  0  0  0  0  0  0  0  0  0  0
   -5.2010    6.9270   39.3540 O   0  0  0  0  0  0  0  0  0  0  0  0
   -3.5590    7.3960   36.8760 C   0  0  0  0  0  0  0  0  0  0  0  0
   -2.9640    8.4810   35.9750 C   0  0  0  0  0  0  0  0  0  0  0  0
   -3.5660    8.4300   34.5560 C   0  0  0  0  0  0  0  0  0  0  0  0
   -3.1880    7.1980   33.8630 N   0  0  0  0  0  0  0  0  0  0  0  0
   -3.9540    6.1150   33.7900 C   0  0  0  0  0  3  0  0  0  0  0  0
   -5.1590    6.1190   34.3450 N   0  0  0  0  0  0  0  0  0  0  0  0
   -3.5160    5.0280   33.1560 N   0  0  0  0  0  0  0  0  0  0  0  0
   -3.4690    5.5630   39.8370 N   0  0  0  0  0  0  0  0  0  0  0  0
   -4.2250    4.7010   40.7490 C   0  0  2  0  0  0  0  0  0  0  0  0
   -4.2810    5.2920   42.1590 C   0  0  0  0  0  0  0  0  0  0  0  0
   -5.3040    5.2110   42.8450 O   0  5  0  0  0  0  0  0  0  0  0  0
   -3.5940    3.3090   40.8040 C   0  0  0  0  0  0  0  0  0  0  0  0
    4.1211    4.5484   32.9394 H   0  0  0  0  0  0  0  0  0  0  0  0
    2.6673    3.7805   32.8600 H   0  0  0  0  0  0  0  0  0  0  0  0
    3.5111    3.8013   34.2732 H   0  0  0  0  0  0  0  0  0  0  0  0
    3.2886    6.1297   34.4832 H   0  0  0  0  0  0  0  0  0  0  0  0
    1.4920    7.1623   32.9009 H   0  0  0  0  0  0  0  0  0  0  0  0
    1.9001    5.7951   31.8096 H   0  0  0  0  0  0  0  0  0  0  0  0
    1.0374    3.5578   33.6722 H   0  0  0  0  0  0  0  0  0  0  0  0
   -1.3754    4.5401   34.6751 H   0  0  0  0  0  0  0  0  0  0  0  0
   -1.9562    2.1928   35.1749 H   0  0  0  0  0  0  0  0  0  0  0  0
   -0.2316    1.7331   34.9727 H   0  0  0  0  0  0  0  0  0  0  0  0
   -1.1612    2.3704   33.5740 H   0  0  0  0  0  0  0  0  0  0  0  0
    1.4533    3.4597   36.4706 H   0  0  0  0  0  0  0  0  0  0  0  0
    0.1609    2.9446   38.9564 H   0  0  0  0  0  0  0  0  0  0  0  0
    2.3923    2.0921   38.4371 H   0  0  0  0  0  0  0  0  0  0  0  0
    2.4116    3.0666   39.9460 H   0  0  0  0  0  0  0  0  0  0  0  0
    4.3242    3.8381   38.9461 H   0  0  0  0  0  0  0  0  0  0  0  0
    3.1325    5.0092   38.2865 H   0  0  0  0  0  0  0  0  0  0  0  0
    0.9941    5.9424   37.4188 H   0  0  0  0  0  0  0  0  0  0  0  0
    1.0621    7.4146   39.9581 H   0  0  0  0  0  0  0  0  0  0  0  0
    1.2785    9.4211   38.5239 H   0  0  0  0  0  0  0  0  0  0  0  0
    1.0591    8.3868   37.0718 H   0  0  0  0  0  0  0  0  0  0  0  0
    3.2024    8.6128   40.1458 H   0  0  0  0  0  0  0  0  0  0  0  0
    2.9490    7.5995   36.0164 H   0  0  0  0  0  0  0  0  0  0  0  0
    5.6271    8.1280   40.1318 H   0  0  0  0  0  0  0  0  0  0  0  0
    5.3773    7.1383   35.9754 H   0  0  0  0  0  0  0  0  0  0  0  0
    6.7181    7.4099   38.0334 H   0  0  0  0  0  0  0  0  0  0  0  0
   -1.3809    6.1878   38.0107 H   0  0  0  0  0  0  0  0  0  0  0  0
   -3.1515    8.4873   38.6719 H   0  0  0  0  0  0  0  0  0  0  0  0
   -4.6534    7.5062   36.8688 H   0  0  0  0  0  0  0  0  0  0  0  0
   -3.2864    6.4156   36.4582 H   0  0  0  0  0  0  0  0  0  0  0  0
   -1.8762    8.3325   35.9073 H   0  0  0  0  0  0  0  0  0  0  0  0
   -3.1728    9.4666   36.4166 H   0  0  0  0  0  0  0  0  0  0  0  0
   -3.1993    9.2923   33.9798 H   0  0  0  0  0  0  0  0  0  0  0  0
   -4.6625    8.4778   34.6298 H   0  0  0  0  0  0  0  0  0  0  0  0
   -2.2677    7.1685   33.4015 H   0  0  0  0  0  0  0  0  0  0  0  0
   -5.7544    5.2803   34.2895 H   0  0  0  0  0  0  0  0  0  0  0  0
   -5.4992    6.9608   34.8314 H   0  0  0  0  0  0  0  0  0  0  0  0
   -2.5804    5.0250   32.7251 H   0  0  0  0  0  0  0  0  0  0  0  0
   -4.1130    4.1907   33.0968 H   0  0  0  0  0  0  0  0  0  0  0  0
   -2.5066    5.3529   39.6648 H   0  0  0  0  0  0  0  0  0  0  0  0
   -5.2526    4.6090   40.3676 H   0  0  0  0  0  0  0  0  0  0  0  0
   -3.2653    5.8715   42.6282 O   0  0  0  0  0  0  0  0  0  0  0  0
   -4.1702    2.6722   41.4913 H   0  0  0  0  0  0  0  0  0  0  0  0
   -2.5571    3.3903   41.1619 H   0  0  0  0  0  0  0  0  0  0  0  0
   -3.6009    2.8632   39.7984 H   0  0  0  0  0  0  0  0  0  0  0  0
  1  2  1  0  0  0  0
  1 50  1  0  0  0  0
  1 51  1  0  0  0  0
  1 52  1  0  0  0  0
  2  3  1  0  0  0  0
  2  5  1  0  0  0  0
  2 53  1  1  0  0  0
  3  4  2  0  0  0  0
  3  9  1  0  0  0  0
  5  6  1  0  0  0  0
  5 54  1  0  0  0  0
  5 55  1  0  0  0  0
  6  7  1  0  0  0  0
  6  8  2  0  0  0  0
  9 10  1  0  0  0  0
  9 56  1  0  0  0  0
 10 11  1  0  0  0  0
 10 13  1  0  0  0  0
 10 57  1  6  0  0  0
 11 12  2  0  0  0  0
 11 14  1  0  0  0  0
 13 58  1  0  0  0  0
 13 59  1  0  0  0  0
 13 60  1  0  0  0  0
 14 15  1  0  0  0  0
 14 61  1  0  0  0  0
 15 16  1  0  0  0  0
 15 18  1  0  0  0  0
 15 62  1  1  0  0  0
 16 17  2  0  0  0  0
 16 23  1  0  0  0  0
 18 19  1  0  0  0  0
 18 63  1  0  0  0  0
 18 64  1  0  0  0  0
 19 20  1  0  0  0  0
 19 65  1  0  0  0  0
 19 66  1  0  0  0  0
 20 21  1  0  0  0  0
 20 22  2  0  0  0  0
 23 24  1  0  0  0  0
 23 67  1  0  0  0  0
 24 25  1  0  0  0  0
 24 27  1  0  0  0  0
 24 68  1  1  0  0  0
 25 26  2  0  0  0  0
 25 34  1  0  0  0  0
 27 28  1  0  0  0  0
 27 69  1  0  0  0  0
 27 70  1  0  0  0  0
 28 29  2  0  0  0  0
 28 30  1  0  0  0  0
 29 31  1  0  0  0  0
 29 71  1  0  0  0  0
 30 32  2  0  0  0  0
 30 72  1  0  0  0  0
 31 33  2  0  0  0  0
 31 73  1  0  0  0  0
 32 33  1  0  0  0  0
 32 74  1  0  0  0  0
 33 75  1  0  0  0  0
 34 35  1  0  0  0  0
 34 76  1  0  0  0  0
 35 36  1  0  0  0  0
 35 38  1  0  0  0  0
 35 77  1  1  0  0  0
 36 37  2  0  0  0  0
 36 45  1  0  0  0  0
 38 39  1  0  0  0  0
 38 78  1  0  0  0  0
 38 79  1  0  0  0  0
 39 40  1  0  0  0  0
 39 80  1  0  0  0  0
 39 81  1  0  0  0  0
 40 41  1  0  0  0  0
 40 82  1  0  0  0  0
 40 83  1  0  0  0  0
 41 42  1  0  0  0  0
 41 84  1  0  0  0  0
 42 43  1  0  0  0  0
 42 44  1  0  0  0  0
 43 85  1  0  0  0  0
 43 86  1  0  0  0  0
 44 87  1  0  0  0  0
 44 88  1  0  0  0  0
 45 46  1  0  0  0  0
 45 89  1  0  0  0  0
 46 47  1  0  0  0  0
 46 49  1  0  0  0  0
 46 90  1  6  0  0  0
 47 48  1  0  0  0  0
 47 91  2  0  0  0  0
 49 92  1  0  0  0  0
 49 93  1  0  0  0  0
 49 94  1  0  0  0  0
M  CHG  4   1   1   7  -1  21  -1  48  -1
M  END
