4op1_ligand
 OpenBabel08222323353D

 42 44  0  0  1  0  0  0  0  0999 V2000
  -40.1950   28.2580   15.7480 C   0  0  0  0  0  0  0  0  0  0  0  0
  -39.5490   29.4640   15.8450 C   0  0  0  0  0  0  0  0  0  0  0  0
  -38.5070   29.7290   14.9960 C   0  0  0  0  0  0  0  0  0  0  0  0
  -37.9220   30.9100   15.1100 N   0  0  0  0  0  0  0  0  0  0  0  0
  -38.1100   28.8200   14.0680 N   0  0  0  0  0  0  0  0  0  0  0  0
  -38.7110   27.6300   13.9890 C   0  0  0  0  0  0  0  0  0  0  0  0
  -39.7900   27.3310   14.8090 C   0  0  0  0  0  0  0  0  0  0  0  0
  -40.5680   25.7790   14.7530 S   0  0  0  0  0  0  0  0  0  0  0  0
  -41.9980   25.9340   14.9350 O   0  0  0  0  0  0  0  0  0  0  0  0
  -40.1080   25.2950   13.4510 O   0  0  0  0  0  0  0  0  0  0  0  0
  -40.0130   24.8640   16.0300 C   0  0  0  0  0  0  0  0  0  0  0  0
  -38.4360   24.2240   16.1490 S   0  0  0  0  0  0  0  0  0  0  0  0
  -40.7520   24.5810   17.1170 C   0  0  0  0  0  0  0  0  0  0  0  0
  -40.0570   23.8560   18.0170 C   0  0  0  0  0  0  0  0  0  0  0  0
  -38.7820   23.5370   17.6670 C   0  0  0  0  0  0  0  0  0  0  0  0
  -37.8500   22.8090   18.4150 C   0  0  0  0  0  0  0  0  0  0  0  0
  -36.5770   22.4500   17.9180 C   0  0  0  0  0  0  0  0  0  0  0  0
  -35.7010   21.7460   18.7450 C   0  0  0  0  0  0  0  0  0  0  0  0
  -36.0400   22.8460   16.2770 Cl  0  0  0  0  0  0  0  0  0  0  0  0
  -38.1910   22.4760   19.6830 N   0  0  0  0  0  0  0  0  0  0  0  0
  -37.3520   21.8050   20.4770 C   0  0  0  0  0  0  0  0  0  0  0  0
  -36.0920   21.4040   20.0300 C   0  0  0  0  0  0  0  0  0  0  0  0
  -35.1250   20.6630   20.9350 C   0  0  2  0  0  0  0  0  0  0  0  0
  -35.7300   19.5280   21.6780 C   0  0  0  0  0  0  0  0  0  0  0  0
  -36.5080   20.1070   22.5730 F   0  0  0  0  0  0  0  0  0  0  0  0
  -36.4210   18.7170   20.9140 F   0  0  0  0  0  0  0  0  0  0  0  0
  -34.6990   18.8860   22.2030 F   0  0  0  0  0  0  0  0  0  0  0  0
  -34.6000   21.6100   22.0260 C   0  0  0  0  0  0  0  0  0  0  0  0
  -34.1170   20.0970   20.1490 O   0  0  0  0  0  0  0  0  0  0  0  0
  -41.0240   28.0328   16.4091 H   0  0  0  0  0  0  0  0  0  0  0  0
  -39.8582   30.1962   16.5821 H   0  0  0  0  0  0  0  0  0  0  0  0
  -37.1340   31.1560   14.4940 H   0  0  0  0  0  0  0  0  0  0  0  0
  -38.2545   31.5836   15.8147 H   0  0  0  0  0  0  0  0  0  0  0  0
  -38.3536   26.8925   13.2795 H   0  0  0  0  0  0  0  0  0  0  0  0
  -41.7848   24.8982   17.2538 H   0  0  0  0  0  0  0  0  0  0  0  0
  -40.4903   23.5448   18.9664 H   0  0  0  0  0  0  0  0  0  0  0  0
  -34.7177   21.4674   18.3836 H   0  0  0  0  0  0  0  0  0  0  0  0
  -37.6562   21.5669   21.4898 H   0  0  0  0  0  0  0  0  0  0  0  0
  -34.1313   22.4870   21.5557 H   0  0  0  0  0  0  0  0  0  0  0  0
  -33.8565   21.0832   22.6421 H   0  0  0  0  0  0  0  0  0  0  0  0
  -35.4365   21.9376   22.6608 H   0  0  0  0  0  0  0  0  0  0  0  0
  -34.4986   19.4582   19.5584 H   0  0  0  0  0  0  0  0  0  0  0  0
  1  2  2  0  0  0  0
  1  7  1  0  0  0  0
  1 30  1  0  0  0  0
  2  3  1  0  0  0  0
  2 31  1  0  0  0  0
  3  4  1  0  0  0  0
  3  5  2  0  0  0  0
  4 32  1  0  0  0  0
  4 33  1  0  0  0  0
  5  6  1  0  0  0  0
  6  7  2  0  0  0  0
  6 34  1  0  0  0  0
  7  8  1  0  0  0  0
  8  9  2  0  0  0  0
  8 10  2  0  0  0  0
  8 11  1  0  0  0  0
 11 12  1  0  0  0  0
 11 13  2  0  0  0  0
 12 15  1  0  0  0  0
 13 14  1  0  0  0  0
 13 35  1  0  0  0  0
 14 15  2  0  0  0  0
 14 36  1  0  0  0  0
 15 16  1  0  0  0  0
 16 17  2  0  0  0  0
 16 20  1  0  0  0  0
 17 18  1  0  0  0  0
 17 19  1  0  0  0  0
 18 22  2  0  0  0  0
 18 37  1  0  0  0  0
 20 21  2  0  0  0  0
 21 22  1  0  0  0  0
 21 38  1  0  0  0  0
 22 23  1  0  0  0  0
 23 24  1  0  0  0  0
 23 28  1  0  0  0  0
 23 29  1  6  0  0  0
 24 25  1  0  0  0  0
 24 26  1  0  0  0  0
 24 27  1  0  0  0  0
 28 39  1  0  0  0  0
 28 40  1  0  0  0  0
 28 41  1  0  0  0  0
 29 42  1  0  0  0  0
M  END
