4op2_ligand
 OpenBabel08222323353D

 46 48  0  0  1  0  0  0  0  0999 V2000
  -44.4820  -20.6830   15.7820 C   0  0  0  0  0  0  0  0  0  0  0  0
  -45.2190  -19.5610   15.9580 C   0  0  0  0  0  0  0  0  0  0  0  0
  -44.9680  -18.4820   15.1110 C   0  0  0  0  0  0  0  0  0  0  0  0
  -45.7150  -17.4150   15.2580 N   0  0  0  0  0  0  0  0  0  0  0  0
  -44.0320  -18.5600   14.1350 N   0  0  0  0  0  0  0  0  0  0  0  0
  -43.3140  -19.6570   13.9690 C   0  0  0  0  0  0  0  0  0  0  0  0
  -43.5400  -20.7480   14.7650 C   0  0  0  0  0  0  0  0  0  0  0  0
  -42.5630  -22.1800   14.6780 S   0  0  0  0  0  0  0  0  0  0  0  0
  -43.3870  -23.3290   15.1580 O   0  0  0  0  0  0  0  0  0  0  0  0
  -42.0090  -22.2940   13.3620 O   0  0  0  0  0  0  0  0  0  0  0  0
  -41.3300  -21.8880   15.7760 C   0  0  0  0  0  0  0  0  0  0  0  0
  -40.4380  -20.8520   15.5020 C   0  0  0  0  0  0  0  0  0  0  0  0
  -39.4050  -20.5630   16.3890 C   0  0  0  0  0  0  0  0  0  0  0  0
  -41.1860  -22.6390   16.9240 C   0  0  0  0  0  0  0  0  0  0  0  0
  -40.1660  -22.3180   17.8200 C   0  0  0  0  0  0  0  0  0  0  0  0
  -39.2540  -21.2820   17.5630 C   0  0  0  0  0  0  0  0  0  0  0  0
  -38.1950  -20.9810   18.4690 C   0  0  0  0  0  0  0  0  0  0  0  0
  -37.1820  -20.0910   18.1340 C   0  0  0  0  0  0  0  0  0  0  0  0
  -36.1210  -19.8180   19.0100 C   0  0  0  0  0  0  0  0  0  0  0  0
  -38.1460  -21.5400   19.7580 C   0  0  0  0  0  0  0  0  0  0  0  0
  -37.1130  -21.2380   20.6550 C   0  0  0  0  0  0  0  0  0  0  0  0
  -36.0880  -20.3800   20.2800 C   0  0  0  0  0  0  0  0  0  0  0  0
  -34.9480  -20.0300   21.2370 C   0  0  2  0  0  0  0  0  0  0  0  0
  -34.3110  -21.2170   21.9250 C   0  0  0  0  0  0  0  0  0  0  0  0
  -35.1640  -21.7730   22.7530 F   0  0  0  0  0  0  0  0  0  0  0  0
  -33.8980  -22.0930   21.0090 F   0  0  0  0  0  0  0  0  0  0  0  0
  -33.2700  -20.7420   22.6010 F   0  0  0  0  0  0  0  0  0  0  0  0
  -35.4610  -19.0300   22.2980 C   0  0  0  0  0  0  0  0  0  0  0  0
  -33.8490  -19.5710   20.4950 O   0  0  0  0  0  0  0  0  0  0  0  0
  -44.6283  -21.5336   16.4378 H   0  0  0  0  0  0  0  0  0  0  0  0
  -45.9776  -19.5034   16.7302 H   0  0  0  0  0  0  0  0  0  0  0  0
  -45.5650  -16.5942   14.6542 H   0  0  0  0  0  0  0  0  0  0  0  0
  -46.4520  -17.3974   15.9773 H   0  0  0  0  0  0  0  0  0  0  0  0
  -42.5471  -19.6931   13.2037 H   0  0  0  0  0  0  0  0  0  0  0  0
  -40.5494  -20.2694   14.5947 H   0  0  0  0  0  0  0  0  0  0  0  0
  -38.7094  -19.7644   16.1578 H   0  0  0  0  0  0  0  0  0  0  0  0
  -41.8558  -23.4668   17.1271 H   0  0  0  0  0  0  0  0  0  0  0  0
  -40.0751  -22.8841   18.7400 H   0  0  0  0  0  0  0  0  0  0  0  0
  -37.2124  -19.5948   17.1707 H   0  0  0  0  0  0  0  0  0  0  0  0
  -35.3186  -19.1618   18.6927 H   0  0  0  0  0  0  0  0  0  0  0  0
  -38.9289  -22.2234   20.0663 H   0  0  0  0  0  0  0  0  0  0  0  0
  -37.1141  -21.6763   21.6464 H   0  0  0  0  0  0  0  0  0  0  0  0
  -35.9238  -18.1677   21.7957 H   0  0  0  0  0  0  0  0  0  0  0  0
  -34.6181  -18.6857   22.9153 H   0  0  0  0  0  0  0  0  0  0  0  0
  -36.2063  -19.5247   22.9381 H   0  0  0  0  0  0  0  0  0  0  0  0
  -33.5604  -20.2552   19.9024 H   0  0  0  0  0  0  0  0  0  0  0  0
  1  2  2  0  0  0  0
  1  7  1  0  0  0  0
  1 30  1  0  0  0  0
  2  3  1  0  0  0  0
  2 31  1  0  0  0  0
  3  4  1  0  0  0  0
  3  5  2  0  0  0  0
  4 32  1  0  0  0  0
  4 33  1  0  0  0  0
  5  6  1  0  0  0  0
  6  7  2  0  0  0  0
  6 34  1  0  0  0  0
  7  8  1  0  0  0  0
  8  9  2  0  0  0  0
  8 10  2  0  0  0  0
  8 11  1  0  0  0  0
 11 12  2  0  0  0  0
 11 14  1  0  0  0  0
 12 13  1  0  0  0  0
 12 35  1  0  0  0  0
 13 16  2  0  0  0  0
 13 36  1  0  0  0  0
 14 15  2  0  0  0  0
 14 37  1  0  0  0  0
 15 16  1  0  0  0  0
 15 38  1  0  0  0  0
 16 17  1  0  0  0  0
 17 18  2  0  0  0  0
 17 20  1  0  0  0  0
 18 19  1  0  0  0  0
 18 39  1  0  0  0  0
 19 22  2  0  0  0  0
 19 40  1  0  0  0  0
 20 21  2  0  0  0  0
 20 41  1  0  0  0  0
 21 22  1  0  0  0  0
 21 42  1  0  0  0  0
 22 23  1  0  0  0  0
 23 24  1  0  0  0  0
 23 28  1  0  0  0  0
 23 29  1  6  0  0  0
 24 25  1  0  0  0  0
 24 26  1  0  0  0  0
 24 27  1  0  0  0  0
 28 43  1  0  0  0  0
 28 44  1  0  0  0  0
 28 45  1  0  0  0  0
 29 46  1  0  0  0  0
M  END
