4oq3_ligand
 OpenBabel08222323353D

 47 50  0  0  0  0  0  0  0  0999 V2000
   12.6180  -17.2620   11.2960 Cl  0  0  0  0  0  0  0  0  0  0  0  0
   10.8720  -17.0360   11.3440 C   0  0  0  0  0  0  0  0  0  0  0  0
   10.1730  -16.5090   10.2480 C   0  0  0  0  0  0  0  0  0  0  0  0
    8.7650  -16.3390   10.2770 C   0  0  0  0  0  0  0  0  0  0  0  0
    8.0560  -16.7330   11.4270 C   0  0  0  0  0  0  0  0  0  0  0  0
    8.7610  -17.2580   12.5250 C   0  0  0  0  0  0  0  0  0  0  0  0
   10.1550  -17.4110   12.4790 C   0  0  0  0  0  0  0  0  0  0  0  0
    6.5460  -16.5980   11.5570 C   0  0  0  0  0  0  0  0  0  0  0  0
    8.2210  -15.8220    9.1410 N   0  0  0  0  0  0  0  0  0  0  0  0
    8.2530  -14.5830    8.7400 C   0  0  0  0  0  0  0  0  0  0  0  0
    7.6940  -14.4810    7.6310 N   0  0  0  0  0  0  0  0  0  0  0  0
    7.2450  -15.7650    7.1950 C   0  0  0  0  0  0  0  0  0  0  0  0
    7.6590  -16.5470    8.2020 C   0  0  0  0  0  0  0  0  0  0  0  0
    7.4210  -18.0310    8.3300 C   0  0  0  0  0  0  0  0  0  0  0  0
    8.4560  -18.9420    8.5090 C   0  0  0  0  0  0  0  0  0  0  0  0
    8.1350  -20.2910    8.6660 C   0  0  0  0  0  0  0  0  0  0  0  0
    6.8080  -20.7450    8.6710 C   0  0  0  0  0  0  0  0  0  0  0  0
    5.7720  -19.8210    8.5020 C   0  0  0  0  0  0  0  0  0  0  0  0
    6.0890  -18.4700    8.3510 C   0  0  0  0  0  0  0  0  0  0  0  0
    9.4400  -21.4100    8.8610 Cl  0  0  0  0  0  0  0  0  0  0  0  0
    6.5790  -16.0550    5.9300 C   0  0  0  0  0  0  0  0  0  0  0  0
    6.3300  -17.2010    5.6320 O   0  5  0  0  0  0  0  0  0  0  0  0
    6.3030  -15.0790    5.0920 O   0  0  0  0  0  0  0  0  0  0  0  0
    8.7770  -13.3610    9.4560 C   0  0  0  0  0  0  0  0  0  0  0  0
    9.6590  -12.4710    8.8350 C   0  0  0  0  0  0  0  0  0  0  0  0
   10.1200  -11.3340    9.5100 C   0  0  0  0  0  0  0  0  0  0  0  0
    9.6780  -11.0700   10.8070 C   0  0  0  0  0  0  0  0  0  0  0  0
    8.7780  -11.9390   11.4310 C   0  0  0  0  0  0  0  0  0  0  0  0
    8.3270  -13.0760   10.7550 C   0  0  0  0  0  0  0  0  0  0  0  0
   11.1080  -10.3920    8.8280 C   0  0  0  0  0  0  0  0  0  0  0  0
   10.7219  -16.2248    9.3575 H   0  0  0  0  0  0  0  0  0  0  0  0
    8.2203  -17.5482   13.4186 H   0  0  0  0  0  0  0  0  0  0  0  0
   10.6788  -17.8243   13.3333 H   0  0  0  0  0  0  0  0  0  0  0  0
    6.1342  -16.1767   10.6280 H   0  0  0  0  0  0  0  0  0  0  0  0
    6.3086  -15.9310   12.3989 H   0  0  0  0  0  0  0  0  0  0  0  0
    6.1035  -17.5887   11.7380 H   0  0  0  0  0  0  0  0  0  0  0  0
    9.4884  -18.6120    8.5262 H   0  0  0  0  0  0  0  0  0  0  0  0
    6.5883  -21.7981    8.8041 H   0  0  0  0  0  0  0  0  0  0  0  0
    4.7388  -20.1488    8.4885 H   0  0  0  0  0  0  0  0  0  0  0  0
    5.2894  -17.7453    8.2479 H   0  0  0  0  0  0  0  0  0  0  0  0
    9.9892  -12.6633    7.8206 H   0  0  0  0  0  0  0  0  0  0  0  0
   10.0329  -10.1901   11.3313 H   0  0  0  0  0  0  0  0  0  0  0  0
    8.4308  -11.7314   12.4367 H   0  0  0  0  0  0  0  0  0  0  0  0
    7.6232  -13.7441   11.2381 H   0  0  0  0  0  0  0  0  0  0  0  0
   11.3341  -10.7661    7.8186 H   0  0  0  0  0  0  0  0  0  0  0  0
   12.0355  -10.3439    9.4175 H   0  0  0  0  0  0  0  0  0  0  0  0
   10.6666   -9.3870    8.7562 H   0  0  0  0  0  0  0  0  0  0  0  0
  1  2  1  0  0  0  0
  2  3  2  0  0  0  0
  2  7  1  0  0  0  0
  3  4  1  0  0  0  0
  3 31  1  0  0  0  0
  4  5  2  0  0  0  0
  4  9  1  0  0  0  0
  5  6  1  0  0  0  0
  5  8  1  0  0  0  0
  6  7  2  0  0  0  0
  6 32  1  0  0  0  0
  7 33  1  0  0  0  0
  8 34  1  0  0  0  0
  8 35  1  0  0  0  0
  8 36  1  0  0  0  0
  9 10  1  0  0  0  0
  9 13  1  0  0  0  0
 10 11  2  0  0  0  0
 10 24  1  0  0  0  0
 11 12  1  0  0  0  0
 12 13  2  0  0  0  0
 12 21  1  0  0  0  0
 13 14  1  0  0  0  0
 14 15  2  0  0  0  0
 14 19  1  0  0  0  0
 15 16  1  0  0  0  0
 15 37  1  0  0  0  0
 16 17  2  0  0  0  0
 16 20  1  0  0  0  0
 17 18  1  0  0  0  0
 17 38  1  0  0  0  0
 18 19  2  0  0  0  0
 18 39  1  0  0  0  0
 19 40  1  0  0  0  0
 21 22  1  0  0  0  0
 21 23  2  0  0  0  0
 24 25  2  0  0  0  0
 24 29  1  0  0  0  0
 25 26  1  0  0  0  0
 25 41  1  0  0  0  0
 26 27  2  0  0  0  0
 26 30  1  0  0  0  0
 27 28  1  0  0  0  0
 27 42  1  0  0  0  0
 28 29  2  0  0  0  0
 28 43  1  0  0  0  0
 29 44  1  0  0  0  0
 30 45  1  0  0  0  0
 30 46  1  0  0  0  0
 30 47  1  0  0  0  0
M  CHG  1  22  -1
M  END
