4oq6_ligand
 OpenBabel08222323353D

 34 35  0  0  0  0  0  0  0  0999 V2000
   14.3780    9.4410   10.2100 C   0  0  0  0  0  0  0  0  0  0  0  0
   12.9100   11.0950   10.9600 C   0  0  0  0  0  0  0  0  0  0  0  0
   11.9800    7.8870    9.2710 C   0  0  0  0  0  0  0  0  0  0  0  0
   15.4270   10.1540   10.7470 C   0  0  0  0  0  0  0  0  0  0  0  0
   13.9520   11.8350   11.4860 C   0  0  0  0  0  0  0  0  0  0  0  0
   10.8690    7.2610    8.7350 C   0  0  0  0  0  0  0  0  0  0  0  0
   10.7790    9.9000    9.4880 C   0  0  0  0  0  0  0  0  0  0  0  0
   13.0870    9.8980   10.2880 C   0  0  0  0  0  0  0  0  0  0  0  0
   11.9620    9.2130    9.6690 C   0  0  0  0  0  0  0  0  0  0  0  0
    9.6600    9.3100    8.9290 C   0  0  0  0  0  0  0  0  0  0  0  0
   15.2480   11.3710   11.3620 C   0  0  0  0  0  0  0  0  0  0  0  0
    9.6990    7.9710    8.5880 C   0  0  0  0  0  0  0  0  0  0  0  0
    8.4180   10.0920    8.7830 C   0  0  0  0  0  0  0  0  0  0  0  0
   18.0980   13.8840   11.4220 C   0  0  0  0  0  0  0  0  0  0  0  0
   16.4060   12.1330   11.9410 C   0  0  0  0  0  0  0  0  0  0  0  0
   17.0140   12.9890   10.8550 C   0  0  0  0  0  0  0  0  0  0  0  0
    8.4300   11.2970    9.1250 O   0  5  0  0  0  0  0  0  0  0  0  0
    8.5900    7.3720    8.0130 O   0  0  0  0  0  0  0  0  0  0  0  0
    7.4370    9.4900    8.2820 O   0  0  0  0  0  0  0  0  0  0  0  0
   14.5771    8.4976    9.7146 H   0  0  0  0  0  0  0  0  0  0  0  0
   11.9008   11.4720   11.0801 H   0  0  0  0  0  0  0  0  0  0  0  0
   12.8968    7.3196    9.3834 H   0  0  0  0  0  0  0  0  0  0  0  0
   16.4276    9.7419   10.6827 H   0  0  0  0  0  0  0  0  0  0  0  0
   13.7542   12.7729   11.9923 H   0  0  0  0  0  0  0  0  0  0  0  0
   10.9193    6.2210    8.4335 H   0  0  0  0  0  0  0  0  0  0  0  0
   10.7249   10.9383    9.7947 H   0  0  0  0  0  0  0  0  0  0  0  0
   18.5262   14.4973   10.6155 H   0  0  0  0  0  0  0  0  0  0  0  0
   18.8884   13.2639   11.8700 H   0  0  0  0  0  0  0  0  0  0  0  0
   17.6662   14.5403   12.1919 H   0  0  0  0  0  0  0  0  0  0  0  0
   17.1596   11.4281   12.3220 H   0  0  0  0  0  0  0  0  0  0  0  0
   16.0538   12.7732   12.7632 H   0  0  0  0  0  0  0  0  0  0  0  0
   17.4505   12.3375   10.0837 H   0  0  0  0  0  0  0  0  0  0  0  0
   16.2282   13.6139   10.4055 H   0  0  0  0  0  0  0  0  0  0  0  0
    7.8520    7.4375    8.6077 H   0  0  0  0  0  0  0  0  0  0  0  0
  1  8  1  0  0  0  0
  1 20  1  0  0  0  0
  2  8  2  0  0  0  0
  2 21  1  0  0  0  0
  3  6  2  0  0  0  0
  3 22  1  0  0  0  0
  4  1  2  0  0  0  0
  4 23  1  0  0  0  0
  5  2  1  0  0  0  0
  5 24  1  0  0  0  0
  6 12  1  0  0  0  0
  6 25  1  0  0  0  0
  7 10  1  0  0  0  0
  7 26  1  0  0  0  0
  8  9  1  0  0  0  0
  9  3  1  0  0  0  0
  9  7  2  0  0  0  0
 10 12  2  0  0  0  0
 10 13  1  0  0  0  0
 11  4  1  0  0  0  0
 11  5  2  0  0  0  0
 12 18  1  0  0  0  0
 13 17  1  0  0  0  0
 13 19  2  0  0  0  0
 14 27  1  0  0  0  0
 14 28  1  0  0  0  0
 14 29  1  0  0  0  0
 15 11  1  0  0  0  0
 15 16  1  0  0  0  0
 15 30  1  0  0  0  0
 15 31  1  0  0  0  0
 16 14  1  0  0  0  0
 16 32  1  0  0  0  0
 16 33  1  0  0  0  0
 18 34  1  0  0  0  0
M  CHG  1  17  -1
M  END
