4or0_ligand
 OpenBabel08222323353D

 30 31  0  0  1  0  0  0  0  0999 V2000
   10.2610   21.1540  123.3530 C   0  0  0  0  0  0  0  0  0  0  0  0
   10.2250   22.4390  123.8430 O   0  0  0  0  0  0  0  0  0  0  0  0
   11.3730   20.7610  122.5500 C   0  0  0  0  0  0  0  0  0  0  0  0
    9.3640   15.0470  121.4540 C   0  0  2  0  0  0  0  0  0  0  0  0
   11.4210   19.4830  122.0160 C   0  0  0  0  0  0  0  0  0  0  0  0
   10.3500   18.6070  122.2980 C   0  0  0  0  0  0  0  0  0  0  0  0
    9.2780   19.0120  123.0840 C   0  0  0  0  0  0  0  0  0  0  0  0
    9.1950   20.2980  123.6370 C   0  0  0  0  0  0  0  0  0  0  0  0
   10.3740   17.3120  121.7690 C   0  0  0  0  0  0  0  0  0  0  0  0
    9.3310   16.4380  122.0030 C   0  0  0  0  0  0  0  0  0  0  0  0
    8.0700   14.8320  120.7620 C   0  0  0  0  0  0  0  0  0  0  0  0
    8.2250   18.1130  123.3380 C   0  0  0  0  0  0  0  0  0  0  0  0
    8.2540   16.8400  122.8030 C   0  0  0  0  0  0  0  0  0  0  0  0
   11.1180   23.3290  123.2330 C   0  0  0  0  0  0  0  0  0  0  0  0
    9.1580   12.8290  122.3400 O   0  5  0  0  0  0  0  0  0  0  0  0
    9.5770   14.4420  123.7660 O   0  0  0  0  0  0  0  0  0  0  0  0
    9.3840   14.0520  122.5750 C   0  0  0  0  0  0  0  0  0  0  0  0
   12.1785   21.4605  122.3580 H   0  0  0  0  0  0  0  0  0  0  0  0
   10.2216   14.9078  120.7793 H   0  0  0  0  0  0  0  0  0  0  0  0
   12.2551   19.1656  121.4007 H   0  0  0  0  0  0  0  0  0  0  0  0
    8.3548   20.6085  124.2475 H   0  0  0  0  0  0  0  0  0  0  0  0
   11.2190   16.9920  121.1701 H   0  0  0  0  0  0  0  0  0  0  0  0
    7.9838   15.5338  119.9194 H   0  0  0  0  0  0  0  0  0  0  0  0
    7.2438   15.0032  121.4678 H   0  0  0  0  0  0  0  0  0  0  0  0
    8.0226   13.7995  120.3855 H   0  0  0  0  0  0  0  0  0  0  0  0
    7.3888   18.4208  123.9554 H   0  0  0  0  0  0  0  0  0  0  0  0
    7.4416   16.1507  123.0027 H   0  0  0  0  0  0  0  0  0  0  0  0
   11.0143   24.3238  123.6908 H   0  0  0  0  0  0  0  0  0  0  0  0
   10.8934   23.3948  122.1582 H   0  0  0  0  0  0  0  0  0  0  0  0
   12.1477   22.9675  123.3710 H   0  0  0  0  0  0  0  0  0  0  0  0
  1  2  1  0  0  0  0
  2 14  1  0  0  0  0
  3  1  2  0  0  0  0
  3 18  1  0  0  0  0
  4 11  1  0  0  0  0
  4 17  1  0  0  0  0
  4 19  1  6  0  0  0
  5  3  1  0  0  0  0
  5 20  1  0  0  0  0
  6  5  2  0  0  0  0
  6  7  1  0  0  0  0
  7  8  2  0  0  0  0
  7 12  1  0  0  0  0
  8  1  1  0  0  0  0
  8 21  1  0  0  0  0
  9  6  1  0  0  0  0
  9 10  2  0  0  0  0
  9 22  1  0  0  0  0
 10  4  1  0  0  0  0
 10 13  1  0  0  0  0
 11 23  1  0  0  0  0
 11 24  1  0  0  0  0
 11 25  1  0  0  0  0
 12 13  2  0  0  0  0
 12 26  1  0  0  0  0
 13 27  1  0  0  0  0
 14 28  1  0  0  0  0
 14 29  1  0  0  0  0
 14 30  1  0  0  0  0
 17 15  1  0  0  0  0
 17 16  2  0  0  0  0
M  CHG  1  15  -1
M  END
