4orx_ligand
 OpenBabel08222323353D

178177  0  0  0  0  0  0  0  0999 V2000
   19.8700  -53.3530   -2.9070 O   0  0  0  0  0  0  0  0  0  0  0  0
   19.4300  -53.9490   -4.1310 C   0  0  0  0  0  0  0  0  0  0  0  0
   19.9230  -55.3890   -4.1590 C   0  0  0  0  0  0  0  0  0  0  0  0
   21.1350  -55.4070   -3.4070 O   0  0  0  0  0  0  0  0  0  0  0  0
   21.8620  -56.6320   -3.4510 C   0  0  0  0  0  0  0  0  0  0  0  0
   23.1730  -56.3930   -2.7160 C   0  0  0  0  0  0  0  0  0  0  0  0
   23.8150  -55.2460   -3.2640 O   0  0  0  0  0  0  0  0  0  0  0  0
   24.2700  -54.3460   -2.2580 C   0  0  0  0  0  0  0  0  0  0  0  0
   25.1850  -53.2940   -2.8730 C   0  0  0  0  0  0  0  0  0  0  0  0
   25.5620  -52.3310   -1.8880 O   0  0  0  0  0  0  0  0  0  0  0  0
   24.4800  -51.4700   -1.5350 C   0  0  0  0  0  0  0  0  0  0  0  0
   23.9360  -50.8430   -2.8120 C   0  0  0  0  0  0  0  0  0  0  0  0
   25.0140  -50.1810   -3.4720 O   0  0  0  0  0  0  0  0  0  0  0  0
   24.8950  -50.1680   -4.8970 C   0  0  0  0  0  0  0  0  0  0  0  0
   23.8630  -49.1550   -5.3970 C   0  0  0  0  0  0  0  0  0  0  0  0
   23.3870  -48.2950   -4.3600 O   0  0  0  0  0  0  0  0  0  0  0  0
   24.3200  -47.3100   -3.9180 C   0  0  0  0  0  0  0  0  0  0  0  0
   24.2420  -47.2590   -2.3940 C   0  0  0  0  0  0  0  0  0  0  0  0
   24.3450  -45.9140   -1.9310 O   0  0  0  0  0  0  0  0  0  0  0  0
   23.2470  -45.1050   -2.3500 C   0  0  0  0  0  0  0  0  0  0  0  0
   21.9270  -45.6500   -1.8200 C   0  0  0  0  0  0  0  0  0  0  0  0
   20.8730  -44.8310   -2.3190 O   0  0  0  0  0  0  0  0  0  0  0  0
   19.7540  -45.5840   -2.7750 C   0  0  0  0  0  0  0  0  0  0  0  0
   19.0440  -46.2090   -1.5870 C   0  0  0  0  0  0  0  0  0  0  0  0
   18.0450  -47.1150   -2.0380 O   0  0  0  0  0  0  0  0  0  0  0  0
   17.9760  -48.2750   -1.2180 C   0  0  0  0  0  0  0  0  0  0  0  0
   18.3250  -49.4980   -2.0510 C   0  0  0  0  0  0  0  0  0  0  0  0
   17.3090  -50.4890   -1.8840 O   0  0  0  0  0  0  0  0  0  0  0  0
   17.8440  -51.6880   -1.3320 C   0  0  0  0  0  0  0  0  0  0  0  0
   16.8190  -52.4030   -0.4760 C   0  0  0  0  0  0  0  0  0  0  0  0
   17.4560  -53.4570    0.2360 O   0  0  0  0  0  0  0  0  0  0  0  0
   16.5190  -54.0930    1.0860 C   0  0  0  0  0  0  0  0  0  0  0  0
   17.1390  -55.2140    1.8990 C   0  0  0  0  0  0  0  0  0  0  0  0
   16.1090  -56.1040    2.3470 O   0  0  0  0  0  0  0  0  0  0  0  0
   15.0860  -55.4820    3.1260 C   0  0  0  0  0  0  0  0  0  0  0  0
   15.6730  -54.9170    4.4060 C   0  0  0  0  0  0  0  0  0  0  0  0
   14.7630  -55.0290    5.4990 O   0  0  0  0  0  0  0  0  0  0  0  0
   15.4080  -55.6350    6.6200 C   0  0  0  0  0  0  0  0  0  0  0  0
   15.4920  -54.6930    7.8160 C   0  0  0  0  0  0  0  0  0  0  0  0
   14.3120  -54.7980    8.6160 O   0  0  0  0  0  0  0  0  0  0  0  0
   14.0410  -56.1510    8.9770 C   0  0  0  0  0  0  0  0  0  0  0  0
   12.8900  -56.2440    9.9750 C   0  0  0  0  0  0  0  0  0  0  0  0
   11.6350  -56.1840    9.2930 O   0  0  0  0  0  0  0  0  0  0  0  0
   11.3610  -57.3770    8.5670 C   0  0  0  0  0  0  0  0  0  0  0  0
   11.1310  -57.0530    7.0980 C   0  0  0  0  0  0  0  0  0  0  0  0
   10.9730  -58.2630    6.3580 O   0  0  0  0  0  0  0  0  0  0  0  0
   10.3290  -58.0260    5.1080 C   0  0  0  0  0  0  0  0  0  0  0  0
    8.8790  -57.6290    5.3540 C   0  0  0  0  0  0  0  0  0  0  0  0
    7.9950  -58.6970    4.9960 O   0  0  0  0  0  0  0  0  0  0  0  0
    8.0660  -59.8180    5.8760 C   0  0  0  0  0  0  0  0  0  0  0  0
    7.1190  -60.8980    5.3740 C   0  0  0  0  0  0  0  0  0  0  0  0
    7.5910  -62.1910    5.7480 O   0  0  0  0  0  0  0  0  0  0  0  0
    6.6150  -63.2050    5.4960 C   0  0  0  0  0  0  0  0  0  0  0  0
    7.2140  -64.5950    5.6870 C   0  0  0  0  0  0  0  0  0  0  0  0
    7.4470  -64.8730    7.0670 O   0  0  0  0  0  0  0  0  0  0  0  0
    6.6400  -65.9530    7.5310 C   0  0  0  0  0  0  0  0  0  0  0  0
    7.3200  -66.6530    8.7000 C   0  0  0  0  0  0  0  0  0  0  0  0
    6.5740  -67.8020    9.1040 O   0  0  0  0  0  0  0  0  0  0  0  0
    5.2590  -67.4890    9.5460 C   0  0  0  0  0  0  0  0  0  0  0  0
    4.7030  -68.5980   10.4330 C   0  0  0  0  0  0  0  0  0  0  0  0
    3.4520  -68.1880   10.9810 O   0  0  0  0  0  0  0  0  0  0  0  0
    2.5260  -67.7910    9.9760 C   0  0  0  0  0  0  0  0  0  0  0  0
    1.3040  -67.1400   10.6130 C   0  0  0  0  0  0  0  0  0  0  0  0
    0.7920  -66.1350    9.7360 O   0  0  0  0  0  0  0  0  0  0  0  0
    1.4740  -64.8920    9.8990 C   0  0  0  0  0  0  0  0  0  0  0  0
    0.5610  -63.7390    9.4970 C   0  0  0  0  0  0  0  0  0  0  0  0
    0.5150  -63.6360    8.0750 O   0  0  0  0  0  0  0  0  0  0  0  0
    0.3020  -62.2990    7.6260 C   0  0  0  0  0  0  0  0  0  0  0  0
    0.3410  -62.2490    6.0990 C   0  0  0  0  0  0  0  0  0  0  0  0
    0.4320  -60.8970    5.6400 O   0  0  0  0  0  0  0  0  0  0  0  0
   -0.1950  -60.6860    4.3740 C   0  0  0  0  0  0  0  0  0  0  0  0
    0.8040  -60.1780    3.3380 C   0  0  0  0  0  0  0  0  0  0  0  0
    1.2170  -61.2300    2.4600 O   0  0  0  0  0  0  0  0  0  0  0  0
    2.6160  -61.5180    2.5560 C   0  0  0  0  0  0  0  0  0  0  0  0
    3.0860  -62.3140    1.3420 C   0  0  0  0  0  0  0  0  0  0  0  0
    4.3690  -62.8870    1.5860 O   0  0  0  0  0  0  0  0  0  0  0  0
   20.8190  -53.3757   -2.8682 H   0  0  0  0  0  0  0  0  0  0  0  0
   19.8459  -53.3957   -4.9859 H   0  0  0  0  0  0  0  0  0  0  0  0
   18.3313  -53.9299   -4.1813 H   0  0  0  0  0  0  0  0  0  0  0  0
   20.1117  -55.7078   -5.1947 H   0  0  0  0  0  0  0  0  0  0  0  0
   19.1789  -56.0563   -3.6997 H   0  0  0  0  0  0  0  0  0  0  0  0
   22.0599  -56.9175   -4.4947 H   0  0  0  0  0  0  0  0  0  0  0  0
   21.2899  -57.4298   -2.9548 H   0  0  0  0  0  0  0  0  0  0  0  0
   23.8256  -57.2708   -2.8328 H   0  0  0  0  0  0  0  0  0  0  0  0
   22.9707  -56.2261   -1.6477 H   0  0  0  0  0  0  0  0  0  0  0  0
   24.8243  -54.9071   -1.4913 H   0  0  0  0  0  0  0  0  0  0  0  0
   23.4044  -53.8497   -1.7951 H   0  0  0  0  0  0  0  0  0  0  0  0
   24.6556  -52.7867   -3.6930 H   0  0  0  0  0  0  0  0  0  0  0  0
   26.0880  -53.7834   -3.2668 H   0  0  0  0  0  0  0  0  0  0  0  0
   24.8373  -50.6818   -0.8560 H   0  0  0  0  0  0  0  0  0  0  0  0
   23.6885  -52.0506   -1.0386 H   0  0  0  0  0  0  0  0  0  0  0  0
   23.1474  -50.1170   -2.5649 H   0  0  0  0  0  0  0  0  0  0  0  0
   23.5225  -51.6254   -3.4653 H   0  0  0  0  0  0  0  0  0  0  0  0
   24.5944  -51.1711   -5.2337 H   0  0  0  0  0  0  0  0  0  0  0  0
   25.8742  -49.9143   -5.3291 H   0  0  0  0  0  0  0  0  0  0  0  0
   23.0081  -49.7031   -5.8197 H   0  0  0  0  0  0  0  0  0  0  0  0
   24.3267  -48.5379   -6.1807 H   0  0  0  0  0  0  0  0  0  0  0  0
   24.0593  -46.3286   -4.3409 H   0  0  0  0  0  0  0  0  0  0  0  0
   25.3368  -47.5868   -4.2334 H   0  0  0  0  0  0  0  0  0  0  0  0
   25.0660  -47.8514   -1.9698 H   0  0  0  0  0  0  0  0  0  0  0  0
   23.2804  -47.6813   -2.0668 H   0  0  0  0  0  0  0  0  0  0  0  0
   23.2126  -45.0883   -3.4493 H   0  0  0  0  0  0  0  0  0  0  0  0
   23.3903  -44.0820   -1.9720 H   0  0  0  0  0  0  0  0  0  0  0  0
   21.9288  -45.6250   -0.7203 H   0  0  0  0  0  0  0  0  0  0  0  0
   21.7875  -46.6858   -2.1630 H   0  0  0  0  0  0  0  0  0  0  0  0
   20.0987  -46.3773   -3.4546 H   0  0  0  0  0  0  0  0  0  0  0  0
   19.0587  -44.9199   -3.3093 H   0  0  0  0  0  0  0  0  0  0  0  0
   18.5728  -45.4170   -0.9864 H   0  0  0  0  0  0  0  0  0  0  0  0
   19.7754  -46.7513   -0.9697 H   0  0  0  0  0  0  0  0  0  0  0  0
   16.9574  -48.3818   -0.8167 H   0  0  0  0  0  0  0  0  0  0  0  0
   18.6897  -48.1806   -0.3863 H   0  0  0  0  0  0  0  0  0  0  0  0
   19.2922  -49.9041   -1.7201 H   0  0  0  0  0  0  0  0  0  0  0  0
   18.3901  -49.2138   -3.1116 H   0  0  0  0  0  0  0  0  0  0  0  0
   18.7178  -51.4387   -0.7121 H   0  0  0  0  0  0  0  0  0  0  0  0
   18.1536  -52.3532   -2.1515 H   0  0  0  0  0  0  0  0  0  0  0  0
   16.0288  -52.8185   -1.1186 H   0  0  0  0  0  0  0  0  0  0  0  0
   16.3759  -51.6927    0.2375 H   0  0  0  0  0  0  0  0  0  0  0  0
   15.7098  -54.5107    0.4690 H   0  0  0  0  0  0  0  0  0  0  0  0
   16.1043  -53.3441    1.7767 H   0  0  0  0  0  0  0  0  0  0  0  0
   17.6617  -54.7903    2.7692 H   0  0  0  0  0  0  0  0  0  0  0  0
   17.8557  -55.7673    1.2743 H   0  0  0  0  0  0  0  0  0  0  0  0
   14.3167  -56.2271    3.3770 H   0  0  0  0  0  0  0  0  0  0  0  0
   14.6311  -54.6669    2.5441 H   0  0  0  0  0  0  0  0  0  0  0  0
   15.9130  -53.8550    4.2496 H   0  0  0  0  0  0  0  0  0  0  0  0
   16.5928  -55.4687    4.6502 H   0  0  0  0  0  0  0  0  0  0  0  0
   16.4273  -55.9268    6.3269 H   0  0  0  0  0  0  0  0  0  0  0  0
   14.8404  -56.5303    6.9137 H   0  0  0  0  0  0  0  0  0  0  0  0
   15.5953  -53.6586    7.4563 H   0  0  0  0  0  0  0  0  0  0  0  0
   16.3682  -54.9584    8.4258 H   0  0  0  0  0  0  0  0  0  0  0  0
   14.9432  -56.5876    9.4303 H   0  0  0  0  0  0  0  0  0  0  0  0
   13.7754  -56.7162    8.0715 H   0  0  0  0  0  0  0  0  0  0  0  0
   12.9572  -55.4068   10.6853 H   0  0  0  0  0  0  0  0  0  0  0  0
   12.9603  -57.1956   10.5222 H   0  0  0  0  0  0  0  0  0  0  0  0
   10.4605  -57.8554    8.9795 H   0  0  0  0  0  0  0  0  0  0  0  0
   12.2156  -58.0634    8.6588 H   0  0  0  0  0  0  0  0  0  0  0  0
   11.9947  -56.4953    6.7069 H   0  0  0  0  0  0  0  0  0  0  0  0
   10.2227  -56.4409    6.9963 H   0  0  0  0  0  0  0  0  0  0  0  0
   10.3607  -58.9416    4.4992 H   0  0  0  0  0  0  0  0  0  0  0  0
   10.8468  -57.2141    4.5763 H   0  0  0  0  0  0  0  0  0  0  0  0
    8.6392  -56.7430    4.7478 H   0  0  0  0  0  0  0  0  0  0  0  0
    8.7453  -57.3913    6.4196 H   0  0  0  0  0  0  0  0  0  0  0  0
    7.7714  -59.5107    6.8903 H   0  0  0  0  0  0  0  0  0  0  0  0
    9.0943  -60.2081    5.8951 H   0  0  0  0  0  0  0  0  0  0  0  0
    7.0530  -60.8402    4.2775 H   0  0  0  0  0  0  0  0  0  0  0  0
    6.1223  -60.7366    5.8104 H   0  0  0  0  0  0  0  0  0  0  0  0
    6.2530  -63.1077    4.4619 H   0  0  0  0  0  0  0  0  0  0  0  0
    5.7736  -63.0764    6.1927 H   0  0  0  0  0  0  0  0  0  0  0  0
    8.1688  -64.6517    5.1438 H   0  0  0  0  0  0  0  0  0  0  0  0
    6.5172  -65.3442    5.2831 H   0  0  0  0  0  0  0  0  0  0  0  0
    6.4914  -66.6732    6.7129 H   0  0  0  0  0  0  0  0  0  0  0  0
    5.6648  -65.5634    7.8583 H   0  0  0  0  0  0  0  0  0  0  0  0
    7.3930  -65.9541    9.5463 H   0  0  0  0  0  0  0  0  0  0  0  0
    8.3293  -66.9667    8.3953 H   0  0  0  0  0  0  0  0  0  0  0  0
    4.6046  -67.3665    8.6704 H   0  0  0  0  0  0  0  0  0  0  0  0
    5.2856  -66.5499   10.1182 H   0  0  0  0  0  0  0  0  0  0  0  0
    5.4108  -68.8037   11.2495 H   0  0  0  0  0  0  0  0  0  0  0  0
    4.5595  -69.5092    9.8338 H   0  0  0  0  0  0  0  0  0  0  0  0
    2.2095  -68.6755    9.4038 H   0  0  0  0  0  0  0  0  0  0  0  0
    3.0102  -67.0709    9.3000 H   0  0  0  0  0  0  0  0  0  0  0  0
    1.5899  -66.6806   11.5707 H   0  0  0  0  0  0  0  0  0  0  0  0
    0.5310  -67.9027   10.7884 H   0  0  0  0  0  0  0  0  0  0  0  0
    2.3723  -64.8835    9.2642 H   0  0  0  0  0  0  0  0  0  0  0  0
    1.7681  -64.7734   10.9523 H   0  0  0  0  0  0  0  0  0  0  0  0
    0.9495  -62.8005    9.9192 H   0  0  0  0  0  0  0  0  0  0  0  0
   -0.4524  -63.9231    9.8833 H   0  0  0  0  0  0  0  0  0  0  0  0
    1.0903  -61.6482    8.0322 H   0  0  0  0  0  0  0  0  0  0  0  0
   -0.6798  -61.9487    7.9771 H   0  0  0  0  0  0  0  0  0  0  0  0
   -0.5766  -62.7052    5.6991 H   0  0  0  0  0  0  0  0  0  0  0  0
    1.2161  -62.8115    5.7414 H   0  0  0  0  0  0  0  0  0  0  0  0
   -0.9982  -59.9436    4.4912 H   0  0  0  0  0  0  0  0  0  0  0  0
   -0.6227  -61.6367    4.0231 H   0  0  0  0  0  0  0  0  0  0  0  0
    1.6867  -59.7763    3.8571 H   0  0  0  0  0  0  0  0  0  0  0  0
    0.3324  -59.3802    2.7455 H   0  0  0  0  0  0  0  0  0  0  0  0
    2.8023  -62.1052    3.4673 H   0  0  0  0  0  0  0  0  0  0  0  0
    3.1767  -60.5731    2.6076 H   0  0  0  0  0  0  0  0  0  0  0  0
    3.1485  -61.6439    0.4719 H   0  0  0  0  0  0  0  0  0  0  0  0
    2.3642  -63.1178    1.1347 H   0  0  0  0  0  0  0  0  0  0  0  0
    4.6458  -63.3781    0.8214 H   0  0  0  0  0  0  0  0  0  0  0  0
  1  2  1  0  0  0  0
  1 77  1  0  0  0  0
  2  3  1  0  0  0  0
  2 78  1  0  0  0  0
  2 79  1  0  0  0  0
  3  4  1  0  0  0  0
  3 80  1  0  0  0  0
  3 81  1  0  0  0  0
  4  5  1  0  0  0  0
  5  6  1  0  0  0  0
  5 82  1  0  0  0  0
  5 83  1  0  0  0  0
  6  7  1  0  0  0  0
  6 84  1  0  0  0  0
  6 85  1  0  0  0  0
  7  8  1  0  0  0  0
  8  9  1  0  0  0  0
  8 86  1  0  0  0  0
  8 87  1  0  0  0  0
  9 10  1  0  0  0  0
  9 88  1  0  0  0  0
  9 89  1  0  0  0  0
 10 11  1  0  0  0  0
 11 12  1  0  0  0  0
 11 90  1  0  0  0  0
 11 91  1  0  0  0  0
 12 13  1  0  0  0  0
 12 92  1  0  0  0  0
 12 93  1  0  0  0  0
 13 14  1  0  0  0  0
 14 15  1  0  0  0  0
 14 94  1  0  0  0  0
 14 95  1  0  0  0  0
 15 16  1  0  0  0  0
 15 96  1  0  0  0  0
 15 97  1  0  0  0  0
 16 17  1  0  0  0  0
 17 18  1  0  0  0  0
 17 98  1  0  0  0  0
 17 99  1  0  0  0  0
 18 19  1  0  0  0  0
 18100  1  0  0  0  0
 18101  1  0  0  0  0
 19 20  1  0  0  0  0
 20 21  1  0  0  0  0
 20102  1  0  0  0  0
 20103  1  0  0  0  0
 21 22  1  0  0  0  0
 21104  1  0  0  0  0
 21105  1  0  0  0  0
 22 23  1  0  0  0  0
 23 24  1  0  0  0  0
 23106  1  0  0  0  0
 23107  1  0  0  0  0
 24 25  1  0  0  0  0
 24108  1  0  0  0  0
 24109  1  0  0  0  0
 25 26  1  0  0  0  0
 26 27  1  0  0  0  0
 26110  1  0  0  0  0
 26111  1  0  0  0  0
 27 28  1  0  0  0  0
 27112  1  0  0  0  0
 27113  1  0  0  0  0
 28 29  1  0  0  0  0
 29 30  1  0  0  0  0
 29114  1  0  0  0  0
 29115  1  0  0  0  0
 30 31  1  0  0  0  0
 30116  1  0  0  0  0
 30117  1  0  0  0  0
 31 32  1  0  0  0  0
 32 33  1  0  0  0  0
 32118  1  0  0  0  0
 32119  1  0  0  0  0
 33 34  1  0  0  0  0
 33120  1  0  0  0  0
 33121  1  0  0  0  0
 34 35  1  0  0  0  0
 35 36  1  0  0  0  0
 35122  1  0  0  0  0
 35123  1  0  0  0  0
 36 37  1  0  0  0  0
 36124  1  0  0  0  0
 36125  1  0  0  0  0
 37 38  1  0  0  0  0
 38 39  1  0  0  0  0
 38126  1  0  0  0  0
 38127  1  0  0  0  0
 39 40  1  0  0  0  0
 39128  1  0  0  0  0
 39129  1  0  0  0  0
 40 41  1  0  0  0  0
 41 42  1  0  0  0  0
 41130  1  0  0  0  0
 41131  1  0  0  0  0
 42 43  1  0  0  0  0
 42132  1  0  0  0  0
 42133  1  0  0  0  0
 43 44  1  0  0  0  0
 44 45  1  0  0  0  0
 44134  1  0  0  0  0
 44135  1  0  0  0  0
 45 46  1  0  0  0  0
 45136  1  0  0  0  0
 45137  1  0  0  0  0
 46 47  1  0  0  0  0
 47 48  1  0  0  0  0
 47138  1  0  0  0  0
 47139  1  0  0  0  0
 48 49  1  0  0  0  0
 48140  1  0  0  0  0
 48141  1  0  0  0  0
 49 50  1  0  0  0  0
 50 51  1  0  0  0  0
 50142  1  0  0  0  0
 50143  1  0  0  0  0
 51 52  1  0  0  0  0
 51144  1  0  0  0  0
 51145  1  0  0  0  0
 52 53  1  0  0  0  0
 53 54  1  0  0  0  0
 53146  1  0  0  0  0
 53147  1  0  0  0  0
 54 55  1  0  0  0  0
 54148  1  0  0  0  0
 54149  1  0  0  0  0
 55 56  1  0  0  0  0
 56 57  1  0  0  0  0
 56150  1  0  0  0  0
 56151  1  0  0  0  0
 57 58  1  0  0  0  0
 57152  1  0  0  0  0
 57153  1  0  0  0  0
 58 59  1  0  0  0  0
 59 60  1  0  0  0  0
 59154  1  0  0  0  0
 59155  1  0  0  0  0
 60 61  1  0  0  0  0
 60156  1  0  0  0  0
 60157  1  0  0  0  0
 61 62  1  0  0  0  0
 62 63  1  0  0  0  0
 62158  1  0  0  0  0
 62159  1  0  0  0  0
 63 64  1  0  0  0  0
 63160  1  0  0  0  0
 63161  1  0  0  0  0
 64 65  1  0  0  0  0
 65 66  1  0  0  0  0
 65162  1  0  0  0  0
 65163  1  0  0  0  0
 66 67  1  0  0  0  0
 66164  1  0  0  0  0
 66165  1  0  0  0  0
 67 68  1  0  0  0  0
 68 69  1  0  0  0  0
 68166  1  0  0  0  0
 68167  1  0  0  0  0
 69 70  1  0  0  0  0
 69168  1  0  0  0  0
 69169  1  0  0  0  0
 70 71  1  0  0  0  0
 71 72  1  0  0  0  0
 71170  1  0  0  0  0
 71171  1  0  0  0  0
 72 73  1  0  0  0  0
 72172  1  0  0  0  0
 72173  1  0  0  0  0
 73 74  1  0  0  0  0
 74 75  1  0  0  0  0
 74174  1  0  0  0  0
 74175  1  0  0  0  0
 75 76  1  0  0  0  0
 75176  1  0  0  0  0
 75177  1  0  0  0  0
 76178  1  0  0  0  0
M  END
