4os1_ligand
 OpenBabel08222323353D

204206  0  0  1  0  0  0  0  0999 V2000
   34.1350   21.8300   -8.4000 N   0  3  0  0  0  0  0  0  0  0  0  0
   32.7530   21.5930   -7.8890 C   0  0  0  0  0  0  0  0  0  0  0  0
   32.3530   20.1280   -7.9660 C   0  0  0  0  0  0  0  0  0  0  0  0
   33.1040   19.2530   -7.5290 O   0  0  0  0  0  0  0  0  0  0  0  0
   31.1810   19.8700   -8.5410 N   0  0  0  0  0  0  0  0  0  0  0  0
   30.5930   18.5220   -8.6080 C   0  0  1  0  0  0  0  0  0  0  0  0
   29.1630   18.5750   -8.8880 C   0  0  0  0  0  0  0  0  0  0  0  0
   28.4250   17.2950   -8.9870 C   0  0  1  0  0  0  0  0  0  0  0  0
   28.3610   16.6140   -7.6060 C   0  0  0  0  0  0  0  0  0  0  0  0
   27.8810   15.0050   -7.5770 S   0  0  0  0  0  0  0  0  0  0  0  0
   26.9060   17.5680   -9.6890 S   0  0  0  0  0  0  0  0  0  0  0  0
   31.2210   17.9990   -9.7010 C   0  0  0  0  0  0  0  0  0  0  0  0
   31.4110   18.6680  -10.7200 O   0  0  0  0  0  0  0  0  0  0  0  0
   31.6160   16.7300   -9.6060 N   0  0  0  0  0  0  0  0  0  0  0  0
   32.2010   16.0110  -10.7390 C   0  0  2  0  0  0  0  0  0  0  0  0
   31.1320   15.5500  -11.7550 C   0  0  0  0  0  0  0  0  0  0  0  0
   29.9190   15.6420  -11.5100 O   0  0  0  0  0  0  0  0  0  0  0  0
   32.9990   14.8140  -10.2360 C   0  0  0  0  0  0  0  0  0  0  0  0
   31.6060   15.0730  -12.9010 N   0  0  0  0  0  0  0  0  0  0  0  0
   30.7680   14.4240  -13.8980 C   0  0  2  0  0  0  0  0  0  0  0  0
   30.7760   12.9270  -13.6200 C   0  0  0  0  0  0  0  0  0  0  0  0
   31.5280   12.4420  -12.7680 O   0  0  0  0  0  0  0  0  0  0  0  0
   31.3180   14.6650  -15.3090 C   0  0  0  0  0  0  0  0  0  0  0  0
   31.1540   16.0430  -15.9630 C   0  0  0  0  0  0  0  0  0  0  0  0
   31.3280   17.2030  -14.9940 C   0  0  0  0  0  0  0  0  0  0  0  0
   32.1330   16.1650  -17.1240 C   0  0  0  0  0  0  0  0  0  0  0  0
   29.9450   12.1880  -14.3400 N   0  0  0  0  0  0  0  0  0  0  0  0
   29.9990   10.7410  -14.2710 C   0  0  0  0  0  0  0  0  0  0  0  0
   29.1950   10.1910  -13.1230 C   0  0  0  0  0  0  0  0  0  0  0  0
   28.2980   10.8430  -12.6000 O   0  0  0  0  0  0  0  0  0  0  0  0
   29.5310    8.9720  -12.7440 N   0  0  0  0  0  0  0  0  0  0  0  0
   28.8200    8.2520  -11.7030 C   0  0  2  0  0  0  0  0  0  0  0  0
   28.9280    9.0190  -10.3860 C   0  0  0  0  0  0  0  0  0  0  0  0
   30.0300    9.3540   -9.9490 O   0  0  0  0  0  0  0  0  0  0  0  0
   29.4190    6.8610  -11.5410 C   0  0  0  0  0  0  0  0  0  0  0  0
   29.3110    5.9850  -12.7790 C   0  0  0  0  0  0  0  0  0  0  0  0
   30.2770    4.8210  -12.6950 C   0  0  0  0  0  0  0  0  0  0  0  0
   31.6420    5.2530  -12.9740 N   0  0  0  0  0  0  0  0  0  0  0  0
   32.6800    4.4370  -13.1390 C   0  0  0  0  0  3  0  0  0  0  0  0
   32.5390    3.1180  -13.0420 N   0  0  0  0  0  0  0  0  0  0  0  0
   33.8730    4.9510  -13.4040 N   0  0  0  0  0  0  0  0  0  0  0  0
   27.7800    9.2920   -9.7720 N   0  0  0  0  0  0  0  0  0  0  0  0
   27.7180   10.0190   -8.5110 C   0  0  0  0  0  0  0  0  0  0  0  0
   26.9070   11.2830   -8.6350 C   0  0  0  0  0  0  0  0  0  0  0  0
   26.3670   11.7750   -7.6540 O   0  0  0  0  0  0  0  0  0  0  0  0
   26.8000   11.8000   -9.8530 N   0  0  0  0  0  0  0  0  0  0  0  0
   26.2290   13.1110  -10.0780 C   0  0  2  0  0  0  0  0  0  0  0  0
   25.0020   13.1210  -11.0250 C   0  0  0  0  0  0  0  0  0  0  0  0
   24.5470   14.1770  -11.4530 O   0  0  0  0  0  0  0  0  0  0  0  0
   27.3720   14.0400  -10.5110 C   0  0  0  0  0  0  0  0  0  0  0  0
   28.6650   14.0690   -9.2180 S   0  0  0  0  0  0  0  0  0  0  0  0
   24.4280   11.9450  -11.2750 N   0  0  0  0  0  0  0  0  0  0  0  0
   23.1660   11.8310  -12.0160 C   0  0  2  0  0  0  0  0  0  0  0  0
   22.0490   12.5560  -11.2560 C   0  0  0  0  0  0  0  0  0  0  0  0
   22.0410   12.5560  -10.0130 O   0  0  0  0  0  0  0  0  0  0  0  0
   22.7550   10.3700  -12.2020 C   0  0  0  0  0  0  0  0  0  0  0  0
   23.6980    9.5270  -13.0470 C   0  0  0  0  0  0  0  0  0  0  0  0
   24.7450    8.7810  -12.2430 C   0  0  0  0  0  0  0  0  0  0  0  0
   25.0190    9.1550  -11.0730 O   0  5  0  0  0  0  0  0  0  0  0  0
   25.3090    7.8120  -12.7970 O   0  0  0  0  0  0  0  0  0  0  0  0
   21.1460   13.1990  -12.0050 N   0  0  0  0  0  0  0  0  0  0  0  0
   19.9540   13.8280  -11.4400 C   0  0  2  0  0  0  0  0  0  0  0  0
   20.3000   14.8920  -10.3690 C   0  0  0  0  0  0  0  0  0  0  0  0
   19.6610   14.9740   -9.3110 O   0  0  0  0  0  0  0  0  0  0  0  0
   19.0310   12.7250  -10.8780 C   0  0  0  0  0  0  0  0  0  0  0  0
   17.5940   13.1850  -10.6750 C   0  0  0  0  0  0  0  0  0  0  0  0
   17.0730   13.9920  -11.4370 O   0  0  0  0  0  0  0  0  0  0  0  0
   16.9430   12.6540   -9.6420 N   0  0  0  0  0  0  0  0  0  0  0  0
   21.3290   15.6890  -10.6610 N   0  0  0  0  0  0  0  0  0  0  0  0
   21.7940   16.7600   -9.7730 C   0  0  2  0  0  0  0  0  0  0  0  0
   21.6620   18.1110  -10.4760 C   0  0  0  0  0  0  0  0  0  0  0  0
   21.9360   18.2130  -11.6720 O   0  0  0  0  0  0  0  0  0  0  0  0
   23.2810   16.5830   -9.4380 C   0  0  0  0  0  0  0  0  0  0  0  0
   23.5630   15.6760   -8.2840 C   0  0  0  0  0  0  0  0  0  0  0  0
   23.3230   14.3210   -8.3220 N   0  0  0  0  0  0  0  0  0  0  0  0
   24.1250   15.9250   -7.0760 C   0  0  0  0  0  0  0  0  0  0  0  0
   23.6990   13.7780   -7.1750 C   0  0  0  0  0  0  0  0  0  0  0  0
   24.1880   14.7300   -6.4020 N   0  0  0  0  0  0  0  0  0  0  0  0
   21.3010   19.1470   -9.7270 N   0  0  0  0  0  0  0  0  0  0  0  0
   21.3490   20.5270  -10.2410 C   0  0  2  0  0  0  0  0  0  0  0  0
   22.7350   20.9180  -10.7330 C   0  0  0  0  0  0  0  0  0  0  0  0
   22.8690   21.5350  -11.7860 O   0  0  0  0  0  0  0  0  0  0  0  0
   20.9490   21.5170   -9.1560 C   0  0  0  0  0  0  0  0  0  0  0  0
   19.4930   21.4300   -8.7790 C   0  0  0  0  0  0  0  0  0  0  0  0
   19.1550   22.3390   -7.6160 C   0  0  0  0  0  0  0  0  0  0  0  0
   17.7530   22.1370   -7.2830 N   0  0  0  0  0  0  0  0  0  0  0  0
   17.2830   21.1230   -6.5610 C   0  0  0  0  0  3  0  0  0  0  0  0
   15.9770   21.0320   -6.3400 N   0  0  0  0  0  0  0  0  0  0  0  0
   18.1000   20.2110   -6.0460 N   0  0  0  0  0  0  0  0  0  0  0  0
   23.7560   20.5430   -9.9600 N   0  0  0  0  0  0  0  0  0  0  0  0
   25.1560   20.8670  -10.2620 C   0  0  2  0  0  0  0  0  0  0  0  0
   25.7910   20.1160  -11.4430 C   0  0  0  0  0  0  0  0  0  0  0  0
   26.9310   20.4190  -11.8020 O   0  0  0  0  0  0  0  0  0  0  0  0
   26.0320   20.6220   -9.0140 C   0  0  0  0  0  0  0  0  0  0  0  0
   26.0500   18.9050   -8.3890 S   0  0  0  0  0  0  0  0  0  0  0  0
   25.0940   19.1330  -12.0220 N   0  0  0  0  0  0  0  0  0  0  0  0
   25.6820   18.2530  -13.0550 C   0  0  2  0  0  0  0  0  0  0  0  0
   26.0270   18.9890  -14.3620 C   0  0  0  0  0  0  0  0  0  0  0  0
   25.3770   19.9770  -14.7360 O   0  0  0  0  0  0  0  0  0  0  0  0
   24.7490   17.0640  -13.3510 C   0  0  0  0  0  0  0  0  0  0  0  0
   25.1300   16.0810  -14.4730 C   0  0  0  0  0  0  0  0  0  0  0  0
   26.4670   15.4080  -14.2180 C   0  0  0  0  0  0  0  0  0  0  0  0
   24.0450   15.0310  -14.6650 C   0  0  0  0  0  0  0  0  0  0  0  0
   27.0920   18.4890  -15.0610 N   0  0  0  0  0  0  0  0  0  0  0  0
   34.3556   22.8111   -8.3296 H   0  0  0  0  0  0  0  0  0  0  0  0
   34.1909   21.5414   -9.3642 H   0  0  0  0  0  0  0  0  0  0  0  0
   34.7920   21.2977   -7.8513 H   0  0  0  0  0  0  0  0  0  0  0  0
   32.0471   22.1845   -8.4904 H   0  0  0  0  0  0  0  0  0  0  0  0
   32.7031   21.9186   -6.8395 H   0  0  0  0  0  0  0  0  0  0  0  0
   30.6742   20.6299   -8.9480 H   0  0  0  0  0  0  0  0  0  0  0  0
   30.7872   17.9442   -7.6923 H   0  0  0  0  0  0  0  0  0  0  0  0
   29.0368   19.1000   -9.8463 H   0  0  0  0  0  0  0  0  0  0  0  0
   28.6940   19.1613   -8.0841 H   0  0  0  0  0  0  0  0  0  0  0  0
   28.9838   16.6260   -9.6580 H   0  0  0  0  0  0  0  0  0  0  0  0
   27.6528   17.1837   -6.9864 H   0  0  0  0  0  0  0  0  0  0  0  0
   29.3652   16.6698   -7.1605 H   0  0  0  0  0  0  0  0  0  0  0  0
   31.5095   16.2537   -8.7332 H   0  0  0  0  0  0  0  0  0  0  0  0
   32.8891   16.6948  -11.2575 H   0  0  0  0  0  0  0  0  0  0  0  0
   33.4356   14.2785  -11.0920 H   0  0  0  0  0  0  0  0  0  0  0  0
   32.3334   14.1368   -9.6807 H   0  0  0  0  0  0  0  0  0  0  0  0
   33.8040   15.1627   -9.5724 H   0  0  0  0  0  0  0  0  0  0  0  0
   32.5843   15.1643  -13.0870 H   0  0  0  0  0  0  0  0  0  0  0  0
   29.7421   14.8152  -13.8310 H   0  0  0  0  0  0  0  0  0  0  0  0
   30.8271   13.9370  -15.9715 H   0  0  0  0  0  0  0  0  0  0  0  0
   32.3974   14.4564  -15.2707 H   0  0  0  0  0  0  0  0  0  0  0  0
   30.1321   16.1016  -16.3658 H   0  0  0  0  0  0  0  0  0  0  0  0
   31.1970   18.1533  -15.5324 H   0  0  0  0  0  0  0  0  0  0  0  0
   32.3360   17.1662  -14.5552 H   0  0  0  0  0  0  0  0  0  0  0  0
   30.5768   17.1283  -14.1939 H   0  0  0  0  0  0  0  0  0  0  0  0
   31.9923   15.3189  -17.8127 H   0  0  0  0  0  0  0  0  0  0  0  0
   33.1629   16.1560  -16.7377 H   0  0  0  0  0  0  0  0  0  0  0  0
   31.9506   17.1081  -17.6599 H   0  0  0  0  0  0  0  0  0  0  0  0
   29.2754   12.6317  -14.9356 H   0  0  0  0  0  0  0  0  0  0  0  0
   31.0475   10.4320  -14.1480 H   0  0  0  0  0  0  0  0  0  0  0  0
   29.6026   10.3275  -15.2100 H   0  0  0  0  0  0  0  0  0  0  0  0
   30.3063    8.5267  -13.1919 H   0  0  0  0  0  0  0  0  0  0  0  0
   27.7604    8.1599  -11.9835 H   0  0  0  0  0  0  0  0  0  0  0  0
   28.8976    6.3555  -10.7148 H   0  0  0  0  0  0  0  0  0  0  0  0
   30.4841    6.9717  -11.2893 H   0  0  0  0  0  0  0  0  0  0  0  0
   29.5466    6.5867  -13.6692 H   0  0  0  0  0  0  0  0  0  0  0  0
   28.2846    5.5977  -12.8593 H   0  0  0  0  0  0  0  0  0  0  0  0
   29.9843    4.0569  -13.4301 H   0  0  0  0  0  0  0  0  0  0  0  0
   30.2355    4.3914  -11.6832 H   0  0  0  0  0  0  0  0  0  0  0  0
   31.8154    6.2655  -13.0489 H   0  0  0  0  0  0  0  0  0  0  0  0
   33.3540    2.5019  -13.1728 H   0  0  0  0  0  0  0  0  0  0  0  0
   31.6148    2.7126  -12.8360 H   0  0  0  0  0  0  0  0  0  0  0  0
   33.9886    5.9716  -13.4804 H   0  0  0  0  0  0  0  0  0  0  0  0
   34.6842    4.3297  -13.5335 H   0  0  0  0  0  0  0  0  0  0  0  0
   26.9258    8.9862  -10.1926 H   0  0  0  0  0  0  0  0  0  0  0  0
   28.7401   10.2805   -8.1998 H   0  0  0  0  0  0  0  0  0  0  0  0
   27.2568    9.3730   -7.7495 H   0  0  0  0  0  0  0  0  0  0  0  0
   27.1227   11.2692  -10.6366 H   0  0  0  0  0  0  0  0  0  0  0  0
   25.8623   13.4770   -9.1077 H   0  0  0  0  0  0  0  0  0  0  0  0
   26.9804   15.0571  -10.6595 H   0  0  0  0  0  0  0  0  0  0  0  0
   27.8050   13.6726  -11.4531 H   0  0  0  0  0  0  0  0  0  0  0  0
   24.8721   11.1114  -10.9466 H   0  0  0  0  0  0  0  0  0  0  0  0
   23.2942   12.2953  -13.0049 H   0  0  0  0  0  0  0  0  0  0  0  0
   21.7651   10.3548  -12.6815 H   0  0  0  0  0  0  0  0  0  0  0  0
   22.6873    9.9076  -11.2062 H   0  0  0  0  0  0  0  0  0  0  0  0
   24.2143   10.1908  -13.7560 H   0  0  0  0  0  0  0  0  0  0  0  0
   23.0995    8.7907  -13.6034 H   0  0  0  0  0  0  0  0  0  0  0  0
   21.2928   13.2514  -12.9928 H   0  0  0  0  0  0  0  0  0  0  0  0
   19.4201   14.3404  -12.2539 H   0  0  0  0  0  0  0  0  0  0  0  0
   19.4319   12.3954   -9.9082 H   0  0  0  0  0  0  0  0  0  0  0  0
   19.0303   11.8791  -11.5811 H   0  0  0  0  0  0  0  0  0  0  0  0
   15.9961   12.9181   -9.4585 H   0  0  0  0  0  0  0  0  0  0  0  0
   17.4010   11.9911   -9.0496 H   0  0  0  0  0  0  0  0  0  0  0  0
   21.8071   15.5495  -11.5282 H   0  0  0  0  0  0  0  0  0  0  0  0
   21.1969   16.7527   -8.8492 H   0  0  0  0  0  0  0  0  0  0  0  0
   23.6987   17.5733   -9.2041 H   0  0  0  0  0  0  0  0  0  0  0  0
   23.7847   16.1729  -10.3257 H   0  0  0  0  0  0  0  0  0  0  0  0
   24.4636   16.8925   -6.7083 H   0  0  0  0  0  0  0  0  0  0  0  0
   23.6186   12.7240   -6.9131 H   0  0  0  0  0  0  0  0  0  0  0  0
   24.5565   14.5981   -5.4493 H   0  0  0  0  0  0  0  0  0  0  0  0
   20.9888   18.9862   -8.7907 H   0  0  0  0  0  0  0  0  0  0  0  0
   20.6412   20.6054  -11.0793 H   0  0  0  0  0  0  0  0  0  0  0  0
   21.1558   22.5348   -9.5183 H   0  0  0  0  0  0  0  0  0  0  0  0
   21.5545   21.3166   -8.2598 H   0  0  0  0  0  0  0  0  0  0  0  0
   19.2597   20.3923   -8.4985 H   0  0  0  0  0  0  0  0  0  0  0  0
   18.8830   21.7213   -9.6468 H   0  0  0  0  0  0  0  0  0  0  0  0
   19.3242   23.3881   -7.9002 H   0  0  0  0  0  0  0  0  0  0  0  0
   19.7847   22.0876   -6.7499 H   0  0  0  0  0  0  0  0  0  0  0  0
   17.0749   22.8295   -7.6316 H   0  0  0  0  0  0  0  0  0  0  0  0
   15.6022   20.2512   -5.7825 H   0  0  0  0  0  0  0  0  0  0  0  0
   15.3386   21.7422   -6.7261 H   0  0  0  0  0  0  0  0  0  0  0  0
   19.1143   20.2751   -6.2132 H   0  0  0  0  0  0  0  0  0  0  0  0
   17.7192   19.4397   -5.4794 H   0  0  0  0  0  0  0  0  0  0  0  0
   23.5579   20.0151   -9.1341 H   0  0  0  0  0  0  0  0  0  0  0  0
   25.1885   21.9394  -10.5049 H   0  0  0  0  0  0  0  0  0  0  0  0
   25.6620   21.2721   -8.2075 H   0  0  0  0  0  0  0  0  0  0  0  0
   27.0657   20.9017   -9.2655 H   0  0  0  0  0  0  0  0  0  0  0  0
   24.1434   18.9879  -11.7475 H   0  0  0  0  0  0  0  0  0  0  0  0
   26.6213   17.8525  -12.6459 H   0  0  0  0  0  0  0  0  0  0  0  0
   23.7648   17.4822  -13.6087 H   0  0  0  0  0  0  0  0  0  0  0  0
   24.6673   16.4789  -12.4231 H   0  0  0  0  0  0  0  0  0  0  0  0
   25.2161   16.6572  -15.4060 H   0  0  0  0  0  0  0  0  0  0  0  0
   26.6937   14.7181  -15.0442 H   0  0  0  0  0  0  0  0  0  0  0  0
   26.4205   14.8461  -13.2735 H   0  0  0  0  0  0  0  0  0  0  0  0
   27.2554   16.1722  -14.1517 H   0  0  0  0  0  0  0  0  0  0  0  0
   23.0815   15.5288  -14.8489 H   0  0  0  0  0  0  0  0  0  0  0  0
   23.9704   14.4110  -13.7595 H   0  0  0  0  0  0  0  0  0  0  0  0
   24.2989   14.3944  -15.5254 H   0  0  0  0  0  0  0  0  0  0  0  0
   27.3723   18.9181  -15.9197 H   0  0  0  0  0  0  0  0  0  0  0  0
   27.5899   17.6946  -14.7131 H   0  0  0  0  0  0  0  0  0  0  0  0
  1  2  1  0  0  0  0
  1105  1  0  0  0  0
  1106  1  0  0  0  0
  1107  1  0  0  0  0
  2  3  1  0  0  0  0
  2108  1  0  0  0  0
  2109  1  0  0  0  0
  3  4  2  0  0  0  0
  3  5  1  0  0  0  0
  5  6  1  0  0  0  0
  5110  1  0  0  0  0
  6  7  1  0  0  0  0
  6 12  1  0  0  0  0
  6111  1  1  0  0  0
  7  8  1  0  0  0  0
  7112  1  0  0  0  0
  7113  1  0  0  0  0
  8  9  1  0  0  0  0
  8 11  1  0  0  0  0
  8114  1  6  0  0  0
  9 10  1  0  0  0  0
  9115  1  0  0  0  0
  9116  1  0  0  0  0
 10 51  1  0  0  0  0
 11 95  1  0  0  0  0
 12 13  2  0  0  0  0
 12 14  1  0  0  0  0
 14 15  1  0  0  0  0
 14117  1  0  0  0  0
 15 16  1  0  0  0  0
 15 18  1  0  0  0  0
 15118  1  6  0  0  0
 16 17  2  0  0  0  0
 16 19  1  0  0  0  0
 18119  1  0  0  0  0
 18120  1  0  0  0  0
 18121  1  0  0  0  0
 19 20  1  0  0  0  0
 19122  1  0  0  0  0
 20 21  1  0  0  0  0
 20 23  1  0  0  0  0
 20123  1  1  0  0  0
 21 22  2  0  0  0  0
 21 27  1  0  0  0  0
 23 24  1  0  0  0  0
 23124  1  0  0  0  0
 23125  1  0  0  0  0
 24 25  1  0  0  0  0
 24 26  1  0  0  0  0
 24126  1  0  0  0  0
 25127  1  0  0  0  0
 25128  1  0  0  0  0
 25129  1  0  0  0  0
 26130  1  0  0  0  0
 26131  1  0  0  0  0
 26132  1  0  0  0  0
 27 28  1  0  0  0  0
 27133  1  0  0  0  0
 28 29  1  0  0  0  0
 28134  1  0  0  0  0
 28135  1  0  0  0  0
 29 30  2  0  0  0  0
 29 31  1  0  0  0  0
 31 32  1  0  0  0  0
 31136  1  0  0  0  0
 32 33  1  0  0  0  0
 32 35  1  0  0  0  0
 32137  1  6  0  0  0
 33 34  2  0  0  0  0
 33 42  1  0  0  0  0
 35 36  1  0  0  0  0
 35138  1  0  0  0  0
 35139  1  0  0  0  0
 36 37  1  0  0  0  0
 36140  1  0  0  0  0
 36141  1  0  0  0  0
 37 38  1  0  0  0  0
 37142  1  0  0  0  0
 37143  1  0  0  0  0
 38 39  1  0  0  0  0
 38144  1  0  0  0  0
 39 40  1  0  0  0  0
 39 41  1  0  0  0  0
 40145  1  0  0  0  0
 40146  1  0  0  0  0
 41147  1  0  0  0  0
 41148  1  0  0  0  0
 42 43  1  0  0  0  0
 42149  1  0  0  0  0
 43 44  1  0  0  0  0
 43150  1  0  0  0  0
 43151  1  0  0  0  0
 44 45  2  0  0  0  0
 44 46  1  0  0  0  0
 46 47  1  0  0  0  0
 46152  1  0  0  0  0
 47 48  1  0  0  0  0
 47 50  1  0  0  0  0
 47153  1  1  0  0  0
 48 49  2  0  0  0  0
 48 52  1  0  0  0  0
 50 51  1  0  0  0  0
 50154  1  0  0  0  0
 50155  1  0  0  0  0
 52 53  1  0  0  0  0
 52156  1  0  0  0  0
 53 54  1  0  0  0  0
 53 56  1  0  0  0  0
 53157  1  6  0  0  0
 54 55  2  0  0  0  0
 54 61  1  0  0  0  0
 56 57  1  0  0  0  0
 56158  1  0  0  0  0
 56159  1  0  0  0  0
 57 58  1  0  0  0  0
 57160  1  0  0  0  0
 57161  1  0  0  0  0
 58 59  1  0  0  0  0
 58 60  2  0  0  0  0
 61 62  1  0  0  0  0
 61162  1  0  0  0  0
 62 63  1  0  0  0  0
 62 65  1  0  0  0  0
 62163  1  6  0  0  0
 63 64  2  0  0  0  0
 63 69  1  0  0  0  0
 65 66  1  0  0  0  0
 65164  1  0  0  0  0
 65165  1  0  0  0  0
 66 67  2  0  0  0  0
 66 68  1  0  0  0  0
 68166  1  0  0  0  0
 68167  1  0  0  0  0
 69 70  1  0  0  0  0
 69168  1  0  0  0  0
 70 71  1  0  0  0  0
 70 73  1  0  0  0  0
 70169  1  1  0  0  0
 71 72  2  0  0  0  0
 71 79  1  0  0  0  0
 73 74  1  0  0  0  0
 73170  1  0  0  0  0
 73171  1  0  0  0  0
 74 75  1  0  0  0  0
 74 76  2  0  0  0  0
 75 77  2  0  0  0  0
 76 78  1  0  0  0  0
 76172  1  0  0  0  0
 77 78  1  0  0  0  0
 77173  1  0  0  0  0
 78174  1  0  0  0  0
 79 80  1  0  0  0  0
 79175  1  0  0  0  0
 80 81  1  0  0  0  0
 80 83  1  0  0  0  0
 80176  1  6  0  0  0
 81 82  2  0  0  0  0
 81 90  1  0  0  0  0
 83 84  1  0  0  0  0
 83177  1  0  0  0  0
 83178  1  0  0  0  0
 84 85  1  0  0  0  0
 84179  1  0  0  0  0
 84180  1  0  0  0  0
 85 86  1  0  0  0  0
 85181  1  0  0  0  0
 85182  1  0  0  0  0
 86 87  1  0  0  0  0
 86183  1  0  0  0  0
 87 88  1  0  0  0  0
 87 89  1  0  0  0  0
 88184  1  0  0  0  0
 88185  1  0  0  0  0
 89186  1  0  0  0  0
 89187  1  0  0  0  0
 90 91  1  0  0  0  0
 90188  1  0  0  0  0
 91 92  1  0  0  0  0
 91 94  1  0  0  0  0
 91189  1  6  0  0  0
 92 93  2  0  0  0  0
 92 96  1  0  0  0  0
 94 95  1  0  0  0  0
 94190  1  0  0  0  0
 94191  1  0  0  0  0
 96 97  1  0  0  0  0
 96192  1  0  0  0  0
 97 98  1  0  0  0  0
 97100  1  0  0  0  0
 97193  1  1  0  0  0
 98 99  2  0  0  0  0
 98104  1  0  0  0  0
100101  1  0  0  0  0
100194  1  0  0  0  0
100195  1  0  0  0  0
101102  1  0  0  0  0
101103  1  0  0  0  0
101196  1  0  0  0  0
102197  1  0  0  0  0
102198  1  0  0  0  0
102199  1  0  0  0  0
103200  1  0  0  0  0
103201  1  0  0  0  0
103202  1  0  0  0  0
104203  1  0  0  0  0
104204  1  0  0  0  0
M  CHG  2   1   1  59  -1
M  END
