4otw_ligand
 OpenBabel08222323353D

 67 70  0  0  1  0  0  0  0  0999 V2000
   52.3460   16.6720   13.4320 C   0  0  0  0  0  0  0  0  0  0  0  0
   43.5550   15.7290   12.9300 O   0  0  0  0  0  0  0  0  0  0  0  0
   55.7940   12.2450   14.4800 C   0  0  0  0  0  0  0  0  0  0  0  0
   45.1830   13.2320   10.0440 N   0  0  0  0  0  0  0  0  0  0  0  0
   42.4940   17.3990   10.7660 Cl  0  0  0  0  0  0  0  0  0  0  0  0
   47.5950   17.1090    8.8180 Cl  0  0  0  0  0  0  0  0  0  0  0  0
   46.2150   13.0640   10.5250 C   0  0  0  0  0  0  0  0  0  0  0  0
   47.9450   11.5470   11.4260 C   0  0  0  0  0  0  0  0  0  0  0  0
   45.0860   17.1930    9.8860 C   0  0  0  0  0  0  0  0  0  0  0  0
   45.8060   15.5920   12.0920 C   0  0  0  0  0  0  0  0  0  0  0  0
   51.2310   11.9450   12.8660 C   0  0  0  0  0  0  0  0  0  0  0  0
   50.5740   14.6630   12.3850 C   0  0  0  0  0  0  0  0  0  0  0  0
   55.2960   11.2030   13.4990 C   0  0  0  0  0  0  0  0  0  0  0  0
   53.7670   11.2520   13.4960 C   0  0  0  0  0  0  0  0  0  0  0  0
   59.0050   10.4750   17.9090 C   0  0  0  0  0  0  0  0  0  0  0  0
   56.5930   11.9950   16.9600 C   0  0  0  0  0  0  0  0  0  0  0  0
   57.5090   10.5550   15.1910 C   0  0  0  0  0  0  0  0  0  0  0  0
   57.9430   12.5810   17.1600 C   0  0  0  0  0  0  0  0  0  0  0  0
   58.8900   11.0950   15.4910 C   0  0  0  0  0  0  0  0  0  0  0  0
   49.1370   11.2750   11.9750 N   0  0  0  0  0  0  0  0  0  0  0  0
   48.1160   15.4050   11.2450 N   0  0  0  0  0  0  0  0  0  0  0  0
   52.7190   15.3370   13.2980 O   0  0  0  0  0  0  0  0  0  0  0  0
   53.3310   12.5720   13.7600 O   0  0  0  0  0  0  0  0  0  0  0  0
   44.4960   16.0600   11.9580 C   0  0  0  0  0  0  0  0  0  0  0  0
   44.1430   16.8550   10.8680 C   0  0  0  0  0  0  0  0  0  0  0  0
   46.3990   16.7190   10.0090 C   0  0  0  0  0  0  0  0  0  0  0  0
   47.5490   12.8790   11.1540 C   0  0  0  0  0  0  0  0  0  0  0  0
   46.7470   15.9230   11.1090 C   0  0  0  0  0  0  0  0  0  0  0  0
   51.8090   14.3330   12.9600 C   0  0  0  0  0  0  0  0  0  0  0  0
   52.1120   12.9720   13.1880 C   0  0  0  0  0  0  0  0  0  0  0  0
   48.4160   13.9710   11.4700 C   0  0  0  0  0  0  0  0  0  0  0  0
   49.9960   12.2600   12.2880 C   0  0  0  0  0  0  0  0  0  0  0  0
   49.6850   13.6330   12.0560 C   0  0  0  0  0  0  0  0  0  0  0  0
   56.4770   11.5150   15.5830 N   0  3  2  0  0  0  0  0  0  0  0  0
   58.8980   11.5270   16.8880 N   0  3  2  0  0  0  0  0  0  0  0  0
   43.8000   14.6470   13.7650 C   0  0  0  0  0  0  0  0  0  0  0  0
   53.2267   17.2735   13.7014 H   0  0  0  0  0  0  0  0  0  0  0  0
   51.5849   16.7627   14.2210 H   0  0  0  0  0  0  0  0  0  0  0  0
   51.9319   17.0344   12.4796 H   0  0  0  0  0  0  0  0  0  0  0  0
   54.9476   12.8240   14.8779 H   0  0  0  0  0  0  0  0  0  0  0  0
   56.5014   12.9245   13.9823 H   0  0  0  0  0  0  0  0  0  0  0  0
   47.2716   10.7322   11.1857 H   0  0  0  0  0  0  0  0  0  0  0  0
   44.8027   17.8128    9.0430 H   0  0  0  0  0  0  0  0  0  0  0  0
   46.0891   14.9828   12.9428 H   0  0  0  0  0  0  0  0  0  0  0  0
   51.4979   10.9125   13.0605 H   0  0  0  0  0  0  0  0  0  0  0  0
   50.3118   15.6981   12.1983 H   0  0  0  0  0  0  0  0  0  0  0  0
   55.6372   10.2044   13.8094 H   0  0  0  0  0  0  0  0  0  0  0  0
   55.6789   11.4248   12.4919 H   0  0  0  0  0  0  0  0  0  0  0  0
   53.3781   10.5765   14.2722 H   0  0  0  0  0  0  0  0  0  0  0  0
   53.3930   10.9335   12.5118 H   0  0  0  0  0  0  0  0  0  0  0  0
   58.9997   10.9329   18.9092 H   0  0  0  0  0  0  0  0  0  0  0  0
   59.9430    9.9187   17.7654 H   0  0  0  0  0  0  0  0  0  0  0  0
   58.1523    9.7862   17.8166 H   0  0  0  0  0  0  0  0  0  0  0  0
   55.8273   12.7620   17.1481 H   0  0  0  0  0  0  0  0  0  0  0  0
   56.4495   11.1552   17.6558 H   0  0  0  0  0  0  0  0  0  0  0  0
   57.3597    9.6182   15.7479 H   0  0  0  0  0  0  0  0  0  0  0  0
   57.4260   10.3574   14.1121 H   0  0  0  0  0  0  0  0  0  0  0  0
   58.0533   12.9345   18.1958 H   0  0  0  0  0  0  0  0  0  0  0  0
   58.0981   13.4212   16.4672 H   0  0  0  0  0  0  0  0  0  0  0  0
   59.1111   11.9481   14.8327 H   0  0  0  0  0  0  0  0  0  0  0  0
   59.6429   10.3080   15.3368 H   0  0  0  0  0  0  0  0  0  0  0  0
   48.9017   16.0680   11.1811 H   0  0  0  0  0  0  0  0  0  0  0  0
   55.7307   10.8594   15.7541 H   0  0  0  0  0  0  0  0  0  0  0  0
   59.7854   11.9977   16.9717 H   0  0  0  0  0  0  0  0  0  0  0  0
   42.9614   14.5283   14.4670 H   0  0  0  0  0  0  0  0  0  0  0  0
   44.7282   14.8217   14.3288 H   0  0  0  0  0  0  0  0  0  0  0  0
   43.9044   13.7338   13.1608 H   0  0  0  0  0  0  0  0  0  0  0  0
  1 37  1  0  0  0  0
  1 38  1  0  0  0  0
  1 39  1  0  0  0  0
  2 36  1  0  0  0  0
  3 34  1  0  0  0  0
  3 40  1  0  0  0  0
  3 41  1  0  0  0  0
  7  4  3  0  0  0  0
  8 27  1  0  0  0  0
  8 42  1  0  0  0  0
  9 25  2  0  0  0  0
  9 43  1  0  0  0  0
 10 24  2  0  0  0  0
 10 44  1  0  0  0  0
 11 32  1  0  0  0  0
 11 45  1  0  0  0  0
 12 33  1  0  0  0  0
 12 46  1  0  0  0  0
 13  3  1  0  0  0  0
 13 47  1  0  0  0  0
 13 48  1  0  0  0  0
 14 13  1  0  0  0  0
 14 49  1  0  0  0  0
 14 50  1  0  0  0  0
 15 51  1  0  0  0  0
 15 52  1  0  0  0  0
 15 53  1  0  0  0  0
 16 18  1  0  0  0  0
 16 54  1  0  0  0  0
 16 55  1  0  0  0  0
 17 19  1  0  0  0  0
 17 56  1  0  0  0  0
 17 57  1  0  0  0  0
 18 35  1  0  0  0  0
 18 58  1  0  0  0  0
 18 59  1  0  0  0  0
 19 35  1  0  0  0  0
 19 60  1  0  0  0  0
 19 61  1  0  0  0  0
 20  8  2  0  0  0  0
 21 28  1  0  0  0  0
 21 62  1  0  0  0  0
 22  1  1  0  0  0  0
 23 14  1  0  0  0  0
 24  2  1  0  0  0  0
 24 25  1  0  0  0  0
 25  5  1  0  0  0  0
 26  6  1  0  0  0  0
 26  9  1  0  0  0  0
 27  7  1  0  0  0  0
 27 31  2  0  0  0  0
 28 10  1  0  0  0  0
 28 26  2  0  0  0  0
 29 12  2  0  0  0  0
 29 22  1  0  0  0  0
 29 30  1  0  0  0  0
 30 11  2  0  0  0  0
 30 23  1  0  0  0  0
 31 21  1  0  0  0  0
 31 33  1  0  0  0  0
 32 20  1  0  0  0  0
 32 33  2  0  0  0  0
 34 16  1  0  0  0  0
 34 17  1  0  0  0  0
 34 63  1  1  0  0  0
 35 15  1  0  0  0  0
 35 64  1  1  0  0  0
 36 65  1  0  0  0  0
 36 66  1  0  0  0  0
 36 67  1  0  0  0  0
M  CHG  2  34   1  35   1
M  END
