4oue_ligand
 OpenBabel08222323353D

 33 33  0  0  1  0  0  0  0  0999 V2000
   26.1420  -31.7770    6.1590 C   0  0  1  0  0  0  0  0  0  0  0  0
   25.4350  -32.9690    6.7050 C   0  0  2  0  0  0  0  0  0  0  0  0
   25.0320  -33.7990    5.6790 O   0  0  0  0  0  0  0  0  0  0  0  0
   24.2690  -32.5000    7.5180 C   0  0  1  0  0  0  0  0  0  0  0  0
   23.6340  -33.5970    8.0820 O   0  0  0  0  0  0  0  0  0  0  0  0
   24.7270  -31.5360    8.5770 C   0  0  1  0  0  0  0  0  0  0  0  0
   25.4790  -32.2090    9.5290 O   0  0  0  0  0  0  0  0  0  0  0  0
   25.5670  -30.4650    7.9440 C   0  0  2  0  0  0  0  0  0  0  0  0
   26.6210  -31.0280    7.2280 O   0  0  0  0  0  0  0  0  0  0  0  0
   26.1240  -29.5580    8.9960 C   0  0  0  0  0  0  0  0  0  0  0  0
   26.5280  -28.3580    8.4400 O   0  0  0  0  0  0  0  0  0  0  0  0
   27.4490  -32.3180    5.0770 S   0  0  0  0  0  0  0  0  0  0  0  0
   27.9690  -30.9690    4.0500 C   0  0  0  0  0  0  0  0  0  0  0  0
   27.4210  -31.1020    2.6680 C   0  0  0  0  0  0  0  0  0  0  0  0
   27.4130  -29.6970    4.5770 C   0  0  0  0  0  0  0  0  0  0  0  0
   25.4358  -31.1629    5.5809 H   0  0  0  0  0  0  0  0  0  0  0  0
   26.1222  -33.5277    7.3574 H   0  0  0  0  0  0  0  0  0  0  0  0
   24.4433  -33.3257    5.1030 H   0  0  0  0  0  0  0  0  0  0  0  0
   23.5588  -31.9818    6.8569 H   0  0  0  0  0  0  0  0  0  0  0  0
   23.3300  -34.1748    7.3920 H   0  0  0  0  0  0  0  0  0  0  0  0
   23.8507  -31.0784    9.0594 H   0  0  0  0  0  0  0  0  0  0  0  0
   26.2365  -32.6027    9.1122 H   0  0  0  0  0  0  0  0  0  0  0  0
   24.9381  -29.8791    7.2576 H   0  0  0  0  0  0  0  0  0  0  0  0
   26.9878  -30.0446    9.4724 H   0  0  0  0  0  0  0  0  0  0  0  0
   25.3495  -29.3633    9.7525 H   0  0  0  0  0  0  0  0  0  0  0  0
   26.8780  -27.7964    9.1216 H   0  0  0  0  0  0  0  0  0  0  0  0
   29.0680  -30.9300    4.0232 H   0  0  0  0  0  0  0  0  0  0  0  0
   27.7597  -30.2531    2.0560 H   0  0  0  0  0  0  0  0  0  0  0  0
   26.3218  -31.1092    2.7085 H   0  0  0  0  0  0  0  0  0  0  0  0
   27.7777  -32.0416    2.2209 H   0  0  0  0  0  0  0  0  0  0  0  0
   27.7373  -28.8625    3.9379 H   0  0  0  0  0  0  0  0  0  0  0  0
   27.7755  -29.5355    5.6029 H   0  0  0  0  0  0  0  0  0  0  0  0
   26.3143  -29.7506    4.5805 H   0  0  0  0  0  0  0  0  0  0  0  0
  1  2  1  0  0  0  0
  1  9  1  0  0  0  0
  1 12  1  0  0  0  0
  1 16  1  6  0  0  0
  2  3  1  0  0  0  0
  2  4  1  0  0  0  0
  2 17  1  1  0  0  0
  3 18  1  0  0  0  0
  4  5  1  0  0  0  0
  4  6  1  0  0  0  0
  4 19  1  6  0  0  0
  5 20  1  0  0  0  0
  6  7  1  0  0  0  0
  6  8  1  0  0  0  0
  6 21  1  1  0  0  0
  7 22  1  0  0  0  0
  8  9  1  0  0  0  0
  8 10  1  0  0  0  0
  8 23  1  6  0  0  0
 10 11  1  0  0  0  0
 10 24  1  0  0  0  0
 10 25  1  0  0  0  0
 11 26  1  0  0  0  0
 12 13  1  0  0  0  0
 13 14  1  0  0  0  0
 13 15  1  0  0  0  0
 13 27  1  0  0  0  0
 14 28  1  0  0  0  0
 14 29  1  0  0  0  0
 14 30  1  0  0  0  0
 15 31  1  0  0  0  0
 15 32  1  0  0  0  0
 15 33  1  0  0  0  0
M  END
