4ovz_ligand
 OpenBabel08222323353D

 57 60  0  0  1  0  0  0  0  0999 V2000
   -7.4620   45.9030  -43.4420 F   0  0  0  0  0  0  0  0  0  0  0  0
   -8.1640   46.5600  -42.5280 C   0  0  0  0  0  0  0  0  0  0  0  0
   -9.2240   45.9240  -41.8140 C   0  0  0  0  0  0  0  0  0  0  0  0
   -9.9250   46.6530  -40.8640 C   0  0  0  0  0  0  0  0  0  0  0  0
   -7.8590   47.9510  -42.2370 C   0  0  0  0  0  0  0  0  0  0  0  0
   -8.5490   48.6710  -41.2710 C   0  0  0  0  0  0  0  0  0  0  0  0
   -9.5760   48.0340  -40.5620 C   0  0  0  0  0  0  0  0  0  0  0  0
  -10.4100   48.7790  -39.5700 C   0  0  0  0  0  0  0  0  0  0  0  0
  -11.8180   48.4360  -39.8070 N   0  0  0  0  0  0  0  0  0  0  0  0
  -12.6300   47.9630  -38.7550 C   0  0  0  0  0  0  0  0  0  0  0  0
  -12.2050   47.8670  -37.6470 O   0  0  0  0  0  0  0  0  0  0  0  0
  -14.0810   47.5870  -39.0210 C   0  0  1  0  0  0  0  0  0  0  0  0
  -14.1210   46.1350  -39.2260 C   0  0  0  0  0  0  0  0  0  0  0  0
  -15.4680   45.7020  -39.7240 C   0  0  0  0  0  0  0  0  0  0  0  0
  -16.6190   46.1040  -38.8530 N   0  3  1  0  0  0  0  0  0  0  0  0
  -16.3930   47.3730  -38.0970 C   0  0  0  0  0  0  0  0  0  0  0  0
  -14.9970   47.9410  -37.9190 C   0  0  0  0  0  0  0  0  0  0  0  0
  -18.0950   45.9920  -39.4280 C   0  0  2  0  0  0  0  0  0  0  0  0
  -19.2720   46.1120  -38.5340 C   0  0  0  0  0  0  0  0  0  0  0  0
  -18.2270   44.5750  -40.1400 C   0  0  0  0  0  0  0  0  0  0  0  0
  -18.3020   43.4700  -39.3570 C   0  0  0  0  0  0  0  0  0  0  0  0
  -18.3950   42.1220  -39.9630 C   0  0  0  0  0  0  0  0  0  0  0  0
  -18.3820   41.9970  -41.3190 C   0  0  0  0  0  0  0  0  0  0  0  0
  -18.3130   43.1940  -42.1660 C   0  0  0  0  0  0  0  0  0  0  0  0
  -18.2230   44.4390  -41.6090 C   0  0  0  0  0  0  0  0  0  0  0  0
  -18.2990   43.0470  -43.5660 C   0  0  0  0  0  0  0  0  0  0  0  0
  -18.1990   44.2060  -44.3860 C   0  0  0  0  0  0  0  0  0  0  0  0
  -18.1120   45.4640  -43.8290 C   0  0  0  0  0  0  0  0  0  0  0  0
  -18.1080   45.6090  -42.4460 C   0  0  0  0  0  0  0  0  0  0  0  0
   -9.4771   44.8885  -42.0108 H   0  0  0  0  0  0  0  0  0  0  0  0
  -10.7484   46.1853  -40.3364 H   0  0  0  0  0  0  0  0  0  0  0  0
   -7.0676   48.4419  -42.7918 H   0  0  0  0  0  0  0  0  0  0  0  0
   -8.2980   49.7061  -41.0692 H   0  0  0  0  0  0  0  0  0  0  0  0
  -10.2635   49.8616  -39.6984 H   0  0  0  0  0  0  0  0  0  0  0  0
  -10.1226   48.4886  -38.5487 H   0  0  0  0  0  0  0  0  0  0  0  0
  -12.2051   48.5388  -40.7233 H   0  0  0  0  0  0  0  0  0  0  0  0
  -14.4189   48.1008  -39.9330 H   0  0  0  0  0  0  0  0  0  0  0  0
  -13.9107   45.6305  -38.2714 H   0  0  0  0  0  0  0  0  0  0  0  0
  -13.3564   45.8544  -39.9653 H   0  0  0  0  0  0  0  0  0  0  0  0
  -15.4667   44.6050  -39.8045 H   0  0  0  0  0  0  0  0  0  0  0  0
  -15.6225   46.1426  -40.7200 H   0  0  0  0  0  0  0  0  0  0  0  0
  -16.6065   45.3949  -38.1367 H   0  0  0  0  0  0  0  0  0  0  0  0
  -16.7951   47.2102  -37.0862 H   0  0  0  0  0  0  0  0  0  0  0  0
  -16.9834   48.1491  -38.6059 H   0  0  0  0  0  0  0  0  0  0  0  0
  -15.0700   49.0372  -37.8633 H   0  0  0  0  0  0  0  0  0  0  0  0
  -14.5789   47.5530  -36.9784 H   0  0  0  0  0  0  0  0  0  0  0  0
  -18.1925   46.7871  -40.1819 H   0  0  0  0  0  0  0  0  0  0  0  0
  -20.1937   46.0062  -39.1251 H   0  0  0  0  0  0  0  0  0  0  0  0
  -19.2616   47.0969  -38.0443 H   0  0  0  0  0  0  0  0  0  0  0  0
  -19.2339   45.3219  -37.7696 H   0  0  0  0  0  0  0  0  0  0  0  0
  -18.2938   43.5746  -38.2781 H   0  0  0  0  0  0  0  0  0  0  0  0
  -18.4727   41.2431  -39.3332 H   0  0  0  0  0  0  0  0  0  0  0  0
  -18.4226   41.0135  -41.7730 H   0  0  0  0  0  0  0  0  0  0  0  0
  -18.3637   42.0622  -44.0144 H   0  0  0  0  0  0  0  0  0  0  0  0
  -18.1911   44.0979  -45.4646 H   0  0  0  0  0  0  0  0  0  0  0  0
  -18.0469   46.3377  -44.4673 H   0  0  0  0  0  0  0  0  0  0  0  0
  -18.0192   46.5931  -42.0001 H   0  0  0  0  0  0  0  0  0  0  0  0
  1  2  1  0  0  0  0
  2  3  2  0  0  0  0
  2  5  1  0  0  0  0
  3  4  1  0  0  0  0
  3 30  1  0  0  0  0
  4  7  2  0  0  0  0
  4 31  1  0  0  0  0
  5  6  2  0  0  0  0
  5 32  1  0  0  0  0
  6  7  1  0  0  0  0
  6 33  1  0  0  0  0
  7  8  1  0  0  0  0
  8  9  1  0  0  0  0
  8 34  1  0  0  0  0
  8 35  1  0  0  0  0
  9 10  1  0  0  0  0
  9 36  1  0  0  0  0
 10 11  2  0  0  0  0
 10 12  1  0  0  0  0
 12 13  1  0  0  0  0
 12 17  1  0  0  0  0
 12 37  1  6  0  0  0
 13 14  1  0  0  0  0
 13 38  1  0  0  0  0
 13 39  1  0  0  0  0
 14 15  1  0  0  0  0
 14 40  1  0  0  0  0
 14 41  1  0  0  0  0
 15 16  1  0  0  0  0
 15 18  1  0  0  0  0
 15 42  1  1  0  0  0
 16 17  1  0  0  0  0
 16 43  1  0  0  0  0
 16 44  1  0  0  0  0
 17 45  1  0  0  0  0
 17 46  1  0  0  0  0
 18 19  1  0  0  0  0
 18 20  1  0  0  0  0
 18 47  1  6  0  0  0
 19 48  1  0  0  0  0
 19 49  1  0  0  0  0
 19 50  1  0  0  0  0
 20 21  2  0  0  0  0
 20 25  1  0  0  0  0
 21 22  1  0  0  0  0
 21 51  1  0  0  0  0
 22 23  2  0  0  0  0
 22 52  1  0  0  0  0
 23 24  1  0  0  0  0
 23 53  1  0  0  0  0
 24 25  2  0  0  0  0
 24 26  1  0  0  0  0
 25 29  1  0  0  0  0
 26 27  2  0  0  0  0
 26 54  1  0  0  0  0
 27 28  1  0  0  0  0
 27 55  1  0  0  0  0
 28 29  2  0  0  0  0
 28 56  1  0  0  0  0
 29 57  1  0  0  0  0
M  CHG  1  15   1
M  END
