4oya_ligand
 OpenBabel08222323353D

 38 41  0  0  0  0  0  0  0  0999 V2000
   17.2900   20.7040   -1.0160 C   0  0  0  0  0  0  0  0  0  0  0  0
   18.0940   21.8720   -1.1490 C   0  0  0  0  0  0  0  0  0  0  0  0
   17.6110   23.2180   -1.5580 C   0  0  0  0  0  0  0  0  0  0  0  0
   19.4970   24.5220   -0.4750 C   0  0  0  0  0  0  0  0  0  0  0  0
   20.1700   25.7170   -0.2670 C   0  0  0  0  0  0  0  0  0  0  0  0
   19.7250   26.8770   -0.8680 C   0  0  0  0  0  0  0  0  0  0  0  0
   18.6200   26.8390   -1.6900 C   0  0  0  0  0  0  0  0  0  0  0  0
   16.8180   28.3100   -2.4230 C   0  0  0  0  0  0  0  0  0  0  0  0
   16.3740   28.0840   -3.8250 C   0  0  0  0  0  0  0  0  0  0  0  0
   14.6280   26.5480   -6.5220 C   0  0  0  0  0  0  0  0  0  0  0  0
   15.3290   28.0610   -8.2530 C   0  0  0  0  0  0  0  0  0  0  0  0
   16.0710   28.7900   -7.3320 C   0  0  0  0  0  0  0  0  0  0  0  0
   16.0910   28.3930   -5.9900 C   0  0  0  0  0  0  0  0  0  0  0  0
   17.9290   25.6580   -1.8830 C   0  0  0  0  0  0  0  0  0  0  0  0
   15.9530   20.6110   -1.1960 N   0  0  0  0  0  0  0  0  0  0  0  0
   18.0380   19.7010   -0.6610 N   0  0  0  0  0  0  0  0  0  0  0  0
   19.3070   20.2140   -0.5720 O   0  0  0  0  0  0  0  0  0  0  0  0
   19.3330   21.5610   -0.8900 N   0  0  0  0  0  0  0  0  0  0  0  0
   16.5410   23.2790   -2.1540 O   0  0  0  0  0  0  0  0  0  0  0  0
   18.3680   24.4790   -1.2860 C   0  0  0  0  0  0  0  0  0  0  0  0
   18.2130   28.0530   -2.2550 O   0  0  0  0  0  0  0  0  0  0  0  0
   15.5520   27.1150   -4.2300 N   0  0  0  0  0  0  0  0  0  0  0  0
   15.3770   27.2870   -5.5860 C   0  0  0  0  0  0  0  0  0  0  0  0
   14.6160   26.9430   -7.8500 C   0  0  0  0  0  0  0  0  0  0  0  0
   16.6910   28.8670   -4.8670 N   0  0  0  0  0  0  0  0  0  0  0  0
   19.8539   23.6145   -0.0017 H   0  0  0  0  0  0  0  0  0  0  0  0
   21.0475   25.7398    0.3691 H   0  0  0  0  0  0  0  0  0  0  0  0
   20.2424   27.8135   -0.6941 H   0  0  0  0  0  0  0  0  0  0  0  0
   16.2513   27.6409   -1.7588 H   0  0  0  0  0  0  0  0  0  0  0  0
   16.6144   29.3560   -2.1503 H   0  0  0  0  0  0  0  0  0  0  0  0
   14.0653   25.6770   -6.2060 H   0  0  0  0  0  0  0  0  0  0  0  0
   15.3076   28.3683   -9.2923 H   0  0  0  0  0  0  0  0  0  0  0  0
   16.6313   29.6614   -7.6510 H   0  0  0  0  0  0  0  0  0  0  0  0
   17.0398   25.6493   -2.5029 H   0  0  0  0  0  0  0  0  0  0  0  0
   15.4782   19.7056   -1.0707 H   0  0  0  0  0  0  0  0  0  0  0  0
   15.4094   21.4456   -1.4584 H   0  0  0  0  0  0  0  0  0  0  0  0
   14.0465   26.3752   -8.5768 H   0  0  0  0  0  0  0  0  0  0  0  0
   17.2961   29.6994   -4.8226 H   0  0  0  0  0  0  0  0  0  0  0  0
  1 15  1  0  0  0  0
  1 16  2  0  0  0  0
  2  1  1  0  0  0  0
  2 18  2  0  0  0  0
  3  2  1  0  0  0  0
  3 19  2  0  0  0  0
  4 20  1  0  0  0  0
  4 26  1  0  0  0  0
  5  4  2  0  0  0  0
  5 27  1  0  0  0  0
  6  5  1  0  0  0  0
  6 28  1  0  0  0  0
  7  6  2  0  0  0  0
  7 14  1  0  0  0  0
  8 21  1  0  0  0  0
  8 29  1  0  0  0  0
  8 30  1  0  0  0  0
  9  8  1  0  0  0  0
  9 22  2  0  0  0  0
 10 24  1  0  0  0  0
 10 31  1  0  0  0  0
 11 24  2  0  0  0  0
 11 32  1  0  0  0  0
 12 11  1  0  0  0  0
 12 33  1  0  0  0  0
 13 12  2  0  0  0  0
 13 23  1  0  0  0  0
 13 25  1  0  0  0  0
 14 20  2  0  0  0  0
 14 34  1  0  0  0  0
 15 35  1  0  0  0  0
 15 36  1  0  0  0  0
 16 17  1  0  0  0  0
 17 18  1  0  0  0  0
 20  3  1  0  0  0  0
 21  7  1  0  0  0  0
 22 23  1  0  0  0  0
 23 10  2  0  0  0  0
 24 37  1  0  0  0  0
 25  9  1  0  0  0  0
 25 38  1  0  0  0  0
M  END
