4oyg_ligand
 OpenBabel08222323353D

 15 14  0  0  1  0  0  0  0  0999 V2000
  -54.7550   62.6870    5.4470 N   0  3  0  0  0  0  0  0  0  0  0  0
  -55.1910   61.3020    5.6460 C   0  0  2  0  0  0  0  0  0  0  0  0
  -54.6800   60.7000    6.9770 C   0  0  0  0  0  0  0  0  0  0  0  0
  -55.1240   59.6450    7.4570 O   0  5  0  0  0  0  0  0  0  0  0  0
  -54.8510   60.4360    4.4100 C   0  0  0  0  0  0  0  0  0  0  0  0
  -55.9570   60.4850    3.3230 C   0  0  0  0  0  0  0  0  0  0  0  0
  -55.7830   61.2040    2.3030 O   0  5  0  0  0  0  0  0  0  0  0  0
  -57.0090   59.8130    3.4910 O   0  0  0  0  0  0  0  0  0  0  0  0
  -53.8370   61.2940    7.6460 O   0  0  0  0  0  0  0  0  0  0  0  0
  -55.1136   63.0293    4.5693 H   0  0  0  0  0  0  0  0  0  0  0  0
  -53.7477   62.7239    5.4357 H   0  0  0  0  0  0  0  0  0  0  0  0
  -55.1038   63.2604    6.1990 H   0  0  0  0  0  0  0  0  0  0  0  0
  -56.2882   61.3240    5.7209 H   0  0  0  0  0  0  0  0  0  0  0  0
  -54.7231   59.3930    4.7353 H   0  0  0  0  0  0  0  0  0  0  0  0
  -53.9105   60.8015    3.9720 H   0  0  0  0  0  0  0  0  0  0  0  0
  1  2  1  0  0  0  0
  1 10  1  0  0  0  0
  1 11  1  0  0  0  0
  1 12  1  0  0  0  0
  2  3  1  0  0  0  0
  2  5  1  0  0  0  0
  2 13  1  1  0  0  0
  3  4  1  0  0  0  0
  3  9  2  0  0  0  0
  5  6  1  0  0  0  0
  5 14  1  0  0  0  0
  5 15  1  0  0  0  0
  6  7  1  0  0  0  0
  6  8  2  0  0  0  0
M  CHG  3   1   1   4  -1   7  -1
M  END
