4oyo_ligand
 OpenBabel08222323353D

 22 23  0  0  0  0  0  0  0  0999 V2000
   15.4970   32.7100   -1.0600 C   0  0  0  0  0  0  0  0  0  0  0  0
   16.5530   32.4820   -2.0860 C   0  0  0  0  0  0  0  0  0  0  0  0
   17.8980   31.8390   -3.7230 C   0  0  0  0  0  0  0  0  0  0  0  0
   16.6880   31.5200   -3.0750 C   0  0  0  0  0  0  0  0  0  0  0  0
   15.7890   30.3930   -3.4230 C   0  0  0  0  0  0  0  0  0  0  0  0
   13.5420   29.6300   -3.8710 C   0  0  0  0  0  0  0  0  0  0  0  0
   14.0110   28.3510   -4.0930 C   0  0  0  0  0  0  0  0  0  0  0  0
   15.3600   28.0820   -3.9870 C   0  0  0  0  0  0  0  0  0  0  0  0
   16.2410   29.0960   -3.6590 C   0  0  0  0  0  0  0  0  0  0  0  0
   17.6230   33.2840   -2.1780 N   0  0  0  0  0  0  0  0  0  0  0  0
   18.4660   32.9080   -3.1780 N   0  0  0  0  0  0  0  0  0  0  0  0
   14.4190   30.6470   -3.5370 C   0  0  0  0  0  0  0  0  0  0  0  0
   17.9270   28.7110   -3.5370 Cl  0  0  0  0  0  0  0  0  0  0  0  0
   15.7588   33.5896   -0.4536 H   0  0  0  0  0  0  0  0  0  0  0  0
   15.4205   31.8260   -0.4098 H   0  0  0  0  0  0  0  0  0  0  0  0
   14.5321   32.8828   -1.5590 H   0  0  0  0  0  0  0  0  0  0  0  0
   18.3130   31.2814   -4.5614 H   0  0  0  0  0  0  0  0  0  0  0  0
   12.4819   29.8388   -3.9587 H   0  0  0  0  0  0  0  0  0  0  0  0
   13.3190   27.5574   -4.3508 H   0  0  0  0  0  0  0  0  0  0  0  0
   15.7286   27.0775   -4.1605 H   0  0  0  0  0  0  0  0  0  0  0  0
   17.7884   34.0928   -1.5620 H   0  0  0  0  0  0  0  0  0  0  0  0
   14.0410   31.6478   -3.3625 H   0  0  0  0  0  0  0  0  0  0  0  0
  1 14  1  0  0  0  0
  1 15  1  0  0  0  0
  1 16  1  0  0  0  0
  2  1  1  0  0  0  0
  2 10  1  0  0  0  0
  3 11  2  0  0  0  0
  3 17  1  0  0  0  0
  4  2  2  0  0  0  0
  4  3  1  0  0  0  0
  5  4  1  0  0  0  0
  5  9  2  0  0  0  0
  6  7  1  0  0  0  0
  6 12  2  0  0  0  0
  6 18  1  0  0  0  0
  7  8  2  0  0  0  0
  7 19  1  0  0  0  0
  8  9  1  0  0  0  0
  8 20  1  0  0  0  0
  9 13  1  0  0  0  0
 10 11  1  0  0  0  0
 10 21  1  0  0  0  0
 12  5  1  0  0  0  0
 12 22  1  0  0  0  0
M  END
