4oyp_ligand
 OpenBabel08222323353D

 17 18  0  0  0  0  0  0  0  0999 V2000
   16.8220   30.4920   -2.2860 O   0  5  0  0  0  0  0  0  0  0  0  0
   15.2970   28.8720   -2.4030 O   0  0  0  0  0  0  0  0  0  0  0  0
   19.9780   25.7350    1.2620 C   0  0  0  0  0  0  0  0  0  0  0  0
   18.9420   24.8580    0.9760 C   0  0  0  0  0  0  0  0  0  0  0  0
   19.9450   27.0420    0.7930 C   0  0  0  0  0  0  0  0  0  0  0  0
   17.8620   25.2860    0.2280 C   0  0  0  0  0  0  0  0  0  0  0  0
   18.4670   28.6800   -0.6130 C   0  0  0  0  0  0  0  0  0  0  0  0
   16.8690   27.1610   -0.9860 O   0  0  0  0  0  0  0  0  0  0  0  0
   16.4020   29.3360   -2.0250 C   0  0  0  0  0  0  0  0  0  0  0  0
   17.2800   28.4580   -1.2150 C   0  0  0  0  0  0  0  0  0  0  0  0
   18.8570   27.4900    0.0190 C   0  0  0  0  0  0  0  0  0  0  0  0
   17.8480   26.5880   -0.2350 C   0  0  0  0  0  0  0  0  0  0  0  0
   20.8197   25.3978    1.8560 H   0  0  0  0  0  0  0  0  0  0  0  0
   18.9797   23.8373    1.3392 H   0  0  0  0  0  0  0  0  0  0  0  0
   20.7593   27.7194    1.0235 H   0  0  0  0  0  0  0  0  0  0  0  0
   17.0410   24.6131    0.0084 H   0  0  0  0  0  0  0  0  0  0  0  0
   19.0232   29.6163   -0.6171 H   0  0  0  0  0  0  0  0  0  0  0  0
  3 13  1  0  0  0  0
  4  3  2  0  0  0  0
  4 14  1  0  0  0  0
  5  3  1  0  0  0  0
  5 15  1  0  0  0  0
  6  4  1  0  0  0  0
  6 16  1  0  0  0  0
  7 11  1  0  0  0  0
  7 17  1  0  0  0  0
  8 12  1  0  0  0  0
  9  1  1  0  0  0  0
  9  2  2  0  0  0  0
  9 10  1  0  0  0  0
 10  7  2  0  0  0  0
 10  8  1  0  0  0  0
 11  5  2  0  0  0  0
 11 12  1  0  0  0  0
 12  6  2  0  0  0  0
M  CHG  1   1  -1
M  END
