4oys_ligand
 OpenBabel08222323353D

 53 56  0  0  1  0  0  0  0  0999 V2000
   17.3650  -17.5320  -23.2920 C   0  0  0  0  0  0  0  0  0  0  0  0
   16.7830  -16.2380  -22.9490 C   0  0  0  0  0  0  0  0  0  0  0  0
   17.5870  -15.0730  -22.8260 C   0  0  0  0  0  0  0  0  0  0  0  0
   21.5200  -17.4830  -24.3330 C   0  0  1  0  0  0  0  0  0  0  0  0
   20.9610  -18.7490  -23.6650 C   0  0  0  0  0  0  0  0  0  0  0  0
   19.4430  -18.8370  -23.8370 C   0  0  0  0  0  0  0  0  0  0  0  0
   21.3230  -17.4360  -25.8360 C   0  0  0  0  0  0  0  0  0  0  0  0
   15.2910  -12.3470  -21.8090 C   0  0  0  0  0  0  0  0  0  0  0  0
   15.6640  -13.4390  -22.7910 C   0  0  1  0  0  0  0  0  0  0  0  0
   21.6370  -14.9430  -23.7030 C   0  0  0  0  0  0  0  0  0  0  0  0
   21.6420  -13.0550  -22.0020 C   0  0  0  0  0  0  0  0  0  0  0  0
   15.3240  -13.0900  -24.2310 C   0  0  0  0  0  0  0  0  0  0  0  0
   18.9570  -15.1450  -23.1160 N   0  0  0  0  0  0  0  0  0  0  0  0
   18.8070  -17.5460  -23.5150 N   0  0  0  0  0  0  0  0  0  0  0  0
   19.5360  -16.3280  -23.3940 C   0  0  1  0  0  3  0  0  0  0  0  0
   20.9550  -16.2980  -23.6610 N   0  0  0  0  0  0  0  0  0  0  0  0
   17.1270  -13.8510  -22.6430 N   0  0  0  0  0  4  0  0  0  0  0  0
   16.7960  -18.6250  -23.4080 O   0  0  0  0  0  0  0  0  0  0  0  0
   20.1030  -17.0200  -26.1800 F   0  0  0  0  0  0  0  0  0  0  0  0
   22.1860  -16.5980  -26.4010 F   0  0  0  0  0  0  0  0  0  0  0  0
   21.5000  -18.6220  -26.4200 F   0  0  0  0  0  0  0  0  0  0  0  0
   18.0850  -12.7510  -22.4520 C   0  0  0  0  0  0  0  0  0  0  0  0
   17.5500  -11.7500  -21.4530 C   0  0  0  0  0  0  0  0  0  0  0  0
   16.2530  -11.2730  -21.8170 O   0  0  0  0  0  0  0  0  0  0  0  0
   21.8820  -14.4030  -22.3250 C   0  0  0  0  0  0  0  0  0  0  0  0
   21.8790  -12.6220  -20.6680 C   0  0  0  0  0  0  0  0  0  0  0  0
   22.3430  -13.5430  -19.6860 C   0  0  0  0  0  0  0  0  0  0  0  0
   22.5680  -14.8560  -19.9930 N   0  0  0  0  0  0  0  0  0  0  0  0
   22.3340  -15.2630  -21.2780 C   0  0  0  0  0  0  0  0  0  0  0  0
   21.5670  -10.9860  -20.2180 Cl  0  0  0  0  0  0  0  0  0  0  0  0
   16.2788  -16.3711  -21.9805 H   0  0  0  0  0  0  0  0  0  0  0  0
   16.0348  -16.0185  -23.7248 H   0  0  0  0  0  0  0  0  0  0  0  0
   22.6061  -17.4768  -24.1591 H   0  0  0  0  0  0  0  0  0  0  0  0
   21.2002  -18.7246  -22.5916 H   0  0  0  0  0  0  0  0  0  0  0  0
   21.4266  -19.6333  -24.1245 H   0  0  0  0  0  0  0  0  0  0  0  0
   19.0475  -19.6122  -23.1642 H   0  0  0  0  0  0  0  0  0  0  0  0
   19.2123  -19.1033  -24.8790 H   0  0  0  0  0  0  0  0  0  0  0  0
   15.2450  -12.7772  -20.7976 H   0  0  0  0  0  0  0  0  0  0  0  0
   14.3043  -11.9441  -22.0813 H   0  0  0  0  0  0  0  0  0  0  0  0
   15.0564  -14.3178  -22.5291 H   0  0  0  0  0  0  0  0  0  0  0  0
   20.9965  -14.2382  -24.2535 H   0  0  0  0  0  0  0  0  0  0  0  0
   22.6011  -15.0450  -24.2226 H   0  0  0  0  0  0  0  0  0  0  0  0
   21.2840  -12.3610  -22.7538 H   0  0  0  0  0  0  0  0  0  0  0  0
   15.6189  -13.9207  -24.8890 H   0  0  0  0  0  0  0  0  0  0  0  0
   15.8658  -12.1790  -24.5253 H   0  0  0  0  0  0  0  0  0  0  0  0
   14.2413  -12.9178  -24.3208 H   0  0  0  0  0  0  0  0  0  0  0  0
   19.5249  -14.2857  -23.1163 H   0  0  0  0  0  0  0  0  0  0  0  0
   18.2536  -12.2466  -23.4149 H   0  0  0  0  0  0  0  0  0  0  0  0
   19.0363  -13.1598  -22.0806 H   0  0  0  0  0  0  0  0  0  0  0  0
   18.2411  -10.8958  -21.4010 H   0  0  0  0  0  0  0  0  0  0  0  0
   17.4874  -12.2316  -20.4660 H   0  0  0  0  0  0  0  0  0  0  0  0
   22.5214  -13.1960  -18.6747 H   0  0  0  0  0  0  0  0  0  0  0  0
   22.5027  -16.3067  -21.5173 H   0  0  0  0  0  0  0  0  0  0  0  0
  1 14  1  0  0  0  0
  1 18  2  0  0  0  0
  2  1  1  0  0  0  0
  2 31  1  0  0  0  0
  2 32  1  0  0  0  0
  3  2  1  0  0  0  0
  3 13  1  0  0  0  0
  4  7  1  0  0  0  0
  4 16  1  0  0  0  0
  4 33  1  1  0  0  0
  5  4  1  0  0  0  0
  5 34  1  0  0  0  0
  5 35  1  0  0  0  0
  6  5  1  0  0  0  0
  6 36  1  0  0  0  0
  6 37  1  0  0  0  0
  7 19  1  0  0  0  0
  7 20  1  0  0  0  0
  7 21  1  0  0  0  0
  8 24  1  0  0  0  0
  8 38  1  0  0  0  0
  8 39  1  0  0  0  0
  9  8  1  0  0  0  0
  9 12  1  0  0  0  0
  9 17  1  0  0  0  0
  9 40  1  1  0  0  0
 10 25  1  0  0  0  0
 10 41  1  0  0  0  0
 10 42  1  0  0  0  0
 11 26  1  0  0  0  0
 11 43  1  0  0  0  0
 12 44  1  0  0  0  0
 12 45  1  0  0  0  0
 12 46  1  0  0  0  0
 13 47  1  0  0  0  0
 14  6  1  0  0  0  0
 14 15  1  0  0  0  0
 15 13  1  6  0  0  0
 15 16  1  0  0  0  0
 16 10  1  0  0  0  0
 17  3  2  0  0  0  0
 17 22  1  0  0  0  0
 22 23  1  0  0  0  0
 22 48  1  0  0  0  0
 22 49  1  0  0  0  0
 23 24  1  0  0  0  0
 23 50  1  0  0  0  0
 23 51  1  0  0  0  0
 25 11  2  0  0  0  0
 25 29  1  0  0  0  0
 26 27  2  0  0  0  0
 26 30  1  0  0  0  0
 27 28  1  0  0  0  0
 27 52  1  0  0  0  0
 28 29  2  0  0  0  0
 29 53  1  0  0  0  0
M  END
