4oz1_ligand
 OpenBabel08222323353D

127129  0  0  1  0  0  0  0  0999 V2000
   23.5280  -69.5920   87.9570 N   0  3  0  0  0  0  0  0  0  0  0  0
   22.8540  -69.7120   89.2470 C   0  0  2  0  0  0  0  0  0  0  0  0
   23.3590  -68.6550   90.2380 C   0  0  0  0  0  0  0  0  0  0  0  0
   24.2340  -68.9330   91.0730 O   0  0  0  0  0  0  0  0  0  0  0  0
   23.0610  -71.1160   89.8190 C   0  0  0  0  0  0  0  0  0  0  0  0
   22.7970  -67.4500   90.1480 N   0  0  0  0  0  0  0  0  0  0  0  0
   23.2980  -66.3130   90.9200 C   0  0  2  0  0  0  0  0  0  0  0  0
   22.8730  -66.4040   92.3820 C   0  0  0  0  0  0  0  0  0  0  0  0
   22.0250  -67.2230   92.7470 O   0  0  0  0  0  0  0  0  0  0  0  0
   22.8160  -64.9910   90.3130 C   0  0  0  0  0  0  0  0  0  0  0  0
   21.5180  -64.6380   90.7670 O   0  0  0  0  0  0  0  0  0  0  0  0
   23.4940  -65.5790   93.2270 N   0  0  0  0  0  0  0  0  0  0  0  0
   23.1730  -65.5750   94.6550 C   0  0  2  0  0  0  0  0  0  0  0  0
   22.0990  -64.5530   94.9830 C   0  0  0  0  0  0  0  0  0  0  0  0
   21.8330  -64.2870   96.1610 O   0  0  0  0  0  0  0  0  0  0  0  0
   24.4290  -65.3060   95.4740 C   0  0  0  0  0  0  0  0  0  0  0  0
   25.4910  -66.3190   95.1990 C   0  0  0  0  0  0  0  0  0  0  0  0
   26.6300  -66.2240   96.1590 C   0  0  0  0  0  0  0  0  0  0  0  0
   26.2840  -66.7050   97.4940 N   0  0  0  0  0  0  0  0  0  0  0  0
   27.0900  -66.6040   98.5430 C   0  0  0  0  0  3  0  0  0  0  0  0
   28.2900  -66.0510   98.4110 N   0  0  0  0  0  0  0  0  0  0  0  0
   26.7130  -67.0600   99.7220 N   0  0  0  0  0  0  0  0  0  0  0  0
   21.4910  -63.9600   93.9530 N   0  0  0  0  0  0  0  0  0  0  0  0
   20.3480  -63.0870   94.1730 C   0  0  2  0  0  0  0  0  0  0  0  0
   19.2180  -63.9280   94.7300 C   0  0  0  0  0  0  0  0  0  0  0  0
   19.0180  -65.0690   94.3100 O   0  0  0  0  0  0  0  0  0  0  0  0
   19.9090  -62.3830   92.8810 C   0  0  0  0  0  0  0  0  0  0  0  0
   20.8810  -61.3300   92.4390 C   0  0  0  0  0  0  0  0  0  0  0  0
   21.7050  -61.3850   91.3560 C   0  0  0  0  0  0  0  0  0  0  0  0
   21.1460  -60.0790   93.0840 C   0  0  0  0  0  0  0  0  0  0  0  0
   22.4590  -60.2350   91.2790 N   0  0  0  0  0  0  0  0  0  0  0  0
   22.1380  -59.4200   92.3290 C   0  0  0  0  0  0  0  0  0  0  0  0
   20.6400  -59.4480   94.2230 C   0  0  0  0  0  0  0  0  0  0  0  0
   22.6270  -58.1620   92.6760 C   0  0  0  0  0  0  0  0  0  0  0  0
   21.1260  -58.2060   94.5700 C   0  0  0  0  0  0  0  0  0  0  0  0
   22.1090  -57.5710   93.7980 C   0  0  0  0  0  0  0  0  0  0  0  0
   18.5190  -63.3490   95.6990 N   0  0  0  0  0  0  0  0  0  0  0  0
   17.4030  -63.9710   96.4120 C   0  0  2  0  0  0  0  0  0  0  0  0
   17.8370  -65.1410   97.3090 C   0  0  0  0  0  0  0  0  0  0  0  0
   17.0070  -65.8410   97.8810 O   0  0  0  0  0  0  0  0  0  0  0  0
   16.3470  -64.4030   95.4030 C   0  0  0  0  0  0  0  0  0  0  0  0
   15.9690  -63.2720   94.4790 C   0  0  0  0  0  0  0  0  0  0  0  0
   15.6620  -62.1780   95.0120 O   0  5  0  0  0  0  0  0  0  0  0  0
   16.0390  -63.4440   93.2400 O   0  0  0  0  0  0  0  0  0  0  0  0
   19.1410  -65.3310   97.4800 N   0  0  0  0  0  0  0  0  0  0  0  0
   19.6060  -66.3150   98.4520 C   0  0  2  0  0  0  0  0  0  0  0  0
   19.3020  -65.8720   99.8850 C   0  0  0  0  0  0  0  0  0  0  0  0
   19.8520  -64.8860  100.3690 O   0  0  0  0  0  0  0  0  0  0  0  0
   21.1040  -66.5570   98.2970 C   0  0  0  0  0  0  0  0  0  0  0  0
   21.6790  -67.5000   99.3500 C   0  0  0  0  0  0  0  0  0  0  0  0
   23.1860  -67.6350   99.2270 C   0  0  0  0  0  0  0  0  0  0  0  0
   23.8770  -67.4860  100.2640 O   0  5  0  0  0  0  0  0  0  0  0  0
   23.6650  -67.8930   98.1020 O   0  0  0  0  0  0  0  0  0  0  0  0
   18.4250  -66.6070  100.5590 N   0  0  0  0  0  0  0  0  0  0  0  0
   18.1070  -66.3540  101.9640 C   0  0  2  0  0  0  0  0  0  0  0  0
   19.2490  -66.7700  102.9020 C   0  0  0  0  0  0  0  0  0  0  0  0
   20.0670  -67.6340  102.5610 O   0  0  0  0  0  0  0  0  0  0  0  0
   16.8430  -67.1170  102.4030 C   0  0  2  0  0  0  0  0  0  0  0  0
   17.0500  -68.5250  102.2020 O   0  0  0  0  0  0  0  0  0  0  0  0
   15.6210  -66.6490  101.6170 C   0  0  0  0  0  0  0  0  0  0  0  0
   19.3100  -66.1500  104.0950 N   0  0  0  0  0  0  0  0  0  0  0  0
   20.3790  -66.5530  105.0200 C   0  0  2  0  0  0  0  0  0  0  0  0
   20.1720  -67.9710  105.5430 C   0  0  0  0  0  0  0  0  0  0  0  0
   21.0600  -68.8160  105.4100 O   0  5  0  0  0  0  0  0  0  0  0  0
   20.2940  -65.5210  106.1590 C   0  0  0  0  0  0  0  0  0  0  0  0
   19.0380  -64.7470  105.9470 C   0  0  0  0  0  0  0  0  0  0  0  0
   18.5660  -64.9580  104.5480 C   0  0  0  0  0  0  0  0  0  0  0  0
   19.1160  -68.2900  106.0960 O   0  0  0  0  0  0  0  0  0  0  0  0
   23.1772  -70.2970   87.3278 H   0  0  0  0  0  0  0  0  0  0  0  0
   24.5201  -69.7180   88.0832 H   0  0  0  0  0  0  0  0  0  0  0  0
   23.3519  -68.6783   87.5696 H   0  0  0  0  0  0  0  0  0  0  0  0
   21.7768  -69.5531   89.0911 H   0  0  0  0  0  0  0  0  0  0  0  0
   22.5498  -71.1955   90.7897 H   0  0  0  0  0  0  0  0  0  0  0  0
   24.1367  -71.3017   89.9549 H   0  0  0  0  0  0  0  0  0  0  0  0
   22.6453  -71.8602   89.1237 H   0  0  0  0  0  0  0  0  0  0  0  0
   22.0148  -67.3201   89.5387 H   0  0  0  0  0  0  0  0  0  0  0  0
   24.3971  -66.3313   90.8801 H   0  0  0  0  0  0  0  0  0  0  0  0
   22.7940  -65.0905   89.2177 H   0  0  0  0  0  0  0  0  0  0  0  0
   23.5195  -64.1937   90.5947 H   0  0  0  0  0  0  0  0  0  0  0  0
   21.2572  -63.8158   90.3689 H   0  0  0  0  0  0  0  0  0  0  0  0
   24.1910  -64.9524   92.8785 H   0  0  0  0  0  0  0  0  0  0  0  0
   22.7905  -66.5709   94.9231 H   0  0  0  0  0  0  0  0  0  0  0  0
   24.1722  -65.3391   96.5431 H   0  0  0  0  0  0  0  0  0  0  0  0
   24.8138  -64.3073   95.2201 H   0  0  0  0  0  0  0  0  0  0  0  0
   25.8739  -66.1617   94.1799 H   0  0  0  0  0  0  0  0  0  0  0  0
   25.0490  -67.3235   95.2737 H   0  0  0  0  0  0  0  0  0  0  0  0
   26.9403  -65.1713   96.2338 H   0  0  0  0  0  0  0  0  0  0  0  0
   27.4660  -66.8262   95.7738 H   0  0  0  0  0  0  0  0  0  0  0  0
   25.3634  -67.1470   97.6285 H   0  0  0  0  0  0  0  0  0  0  0  0
   28.9140  -65.9737   99.2268 H   0  0  0  0  0  0  0  0  0  0  0  0
   28.5968  -65.6994   97.4928 H   0  0  0  0  0  0  0  0  0  0  0  0
   25.7842  -67.4906   99.8346 H   0  0  0  0  0  0  0  0  0  0  0  0
   27.3475  -66.9854  100.5299 H   0  0  0  0  0  0  0  0  0  0  0  0
   21.8237  -64.1170   93.0231 H   0  0  0  0  0  0  0  0  0  0  0  0
   20.6235  -62.3186   94.9103 H   0  0  0  0  0  0  0  0  0  0  0  0
   18.9309  -61.9098   93.0525 H   0  0  0  0  0  0  0  0  0  0  0  0
   19.8177  -63.1351   92.0835 H   0  0  0  0  0  0  0  0  0  0  0  0
   21.7596  -62.2159   90.6542 H   0  0  0  0  0  0  0  0  0  0  0  0
   23.1530  -60.0230   90.5481 H   0  0  0  0  0  0  0  0  0  0  0  0
   19.8767  -59.9280   94.8247 H   0  0  0  0  0  0  0  0  0  0  0  0
   23.3879  -57.6701   92.0810 H   0  0  0  0  0  0  0  0  0  0  0  0
   20.7417  -57.7117   95.4549 H   0  0  0  0  0  0  0  0  0  0  0  0
   22.4667  -56.5918   94.0952 H   0  0  0  0  0  0  0  0  0  0  0  0
   18.7743  -62.4183   95.9611 H   0  0  0  0  0  0  0  0  0  0  0  0
   16.9567  -63.2074   97.0659 H   0  0  0  0  0  0  0  0  0  0  0  0
   15.4499  -64.7364   95.9452 H   0  0  0  0  0  0  0  0  0  0  0  0
   16.7443  -65.2359   94.8043 H   0  0  0  0  0  0  0  0  0  0  0  0
   19.8003  -64.8024   96.9453 H   0  0  0  0  0  0  0  0  0  0  0  0
   19.0777  -67.2610   98.2622 H   0  0  0  0  0  0  0  0  0  0  0  0
   21.6230  -65.5903   98.3745 H   0  0  0  0  0  0  0  0  0  0  0  0
   21.2857  -66.9922   97.3032 H   0  0  0  0  0  0  0  0  0  0  0  0
   21.2218  -68.4928   99.2259 H   0  0  0  0  0  0  0  0  0  0  0  0
   21.4376  -67.1074  100.3488 H   0  0  0  0  0  0  0  0  0  0  0  0
   17.9655  -67.3606  100.0890 H   0  0  0  0  0  0  0  0  0  0  0  0
   17.9293  -65.2749  102.0819 H   0  0  0  0  0  0  0  0  0  0  0  0
   16.6672  -66.9289  103.4724 H   0  0  0  0  0  0  0  0  0  0  0  0
   17.7931  -68.8118  102.7198 H   0  0  0  0  0  0  0  0  0  0  0  0
   14.7346  -67.2089  101.9498 H   0  0  0  0  0  0  0  0  0  0  0  0
   15.7852  -66.8265  100.5439 H   0  0  0  0  0  0  0  0  0  0  0  0
   15.4626  -65.5745  101.7910 H   0  0  0  0  0  0  0  0  0  0  0  0
   21.3579  -66.4960  104.5215 H   0  0  0  0  0  0  0  0  0  0  0  0
   21.1635  -64.8480  106.1258 H   0  0  0  0  0  0  0  0  0  0  0  0
   20.2635  -66.0329  107.1321 H   0  0  0  0  0  0  0  0  0  0  0  0
   19.2320  -63.6771  106.1130 H   0  0  0  0  0  0  0  0  0  0  0  0
   18.2680  -65.0937  106.6519 H   0  0  0  0  0  0  0  0  0  0  0  0
   17.4817  -65.1419  104.5249 H   0  0  0  0  0  0  0  0  0  0  0  0
   18.8036  -64.0869  103.9198 H   0  0  0  0  0  0  0  0  0  0  0  0
  1  2  1  0  0  0  0
  1 69  1  0  0  0  0
  1 70  1  0  0  0  0
  1 71  1  0  0  0  0
  2  3  1  0  0  0  0
  2  5  1  0  0  0  0
  2 72  1  6  0  0  0
  3  4  2  0  0  0  0
  3  6  1  0  0  0  0
  5 73  1  0  0  0  0
  5 74  1  0  0  0  0
  5 75  1  0  0  0  0
  6  7  1  0  0  0  0
  6 76  1  0  0  0  0
  7  8  1  0  0  0  0
  7 10  1  0  0  0  0
  7 77  1  6  0  0  0
  8  9  2  0  0  0  0
  8 12  1  0  0  0  0
 10 11  1  0  0  0  0
 10 78  1  0  0  0  0
 10 79  1  0  0  0  0
 11 80  1  0  0  0  0
 12 13  1  0  0  0  0
 12 81  1  0  0  0  0
 13 14  1  0  0  0  0
 13 16  1  0  0  0  0
 13 82  1  1  0  0  0
 14 15  2  0  0  0  0
 14 23  1  0  0  0  0
 16 17  1  0  0  0  0
 16 83  1  0  0  0  0
 16 84  1  0  0  0  0
 17 18  1  0  0  0  0
 17 85  1  0  0  0  0
 17 86  1  0  0  0  0
 18 19  1  0  0  0  0
 18 87  1  0  0  0  0
 18 88  1  0  0  0  0
 19 20  1  0  0  0  0
 19 89  1  0  0  0  0
 20 21  1  0  0  0  0
 20 22  1  0  0  0  0
 21 90  1  0  0  0  0
 21 91  1  0  0  0  0
 22 92  1  0  0  0  0
 22 93  1  0  0  0  0
 23 24  1  0  0  0  0
 23 94  1  0  0  0  0
 24 25  1  0  0  0  0
 24 27  1  0  0  0  0
 24 95  1  1  0  0  0
 25 26  2  0  0  0  0
 25 37  1  0  0  0  0
 27 28  1  0  0  0  0
 27 96  1  0  0  0  0
 27 97  1  0  0  0  0
 28 29  2  0  0  0  0
 28 30  1  0  0  0  0
 29 31  1  0  0  0  0
 29 98  1  0  0  0  0
 30 32  2  0  0  0  0
 30 33  1  0  0  0  0
 31 32  1  0  0  0  0
 31 99  1  0  0  0  0
 32 34  1  0  0  0  0
 33 35  2  0  0  0  0
 33100  1  0  0  0  0
 34 36  2  0  0  0  0
 34101  1  0  0  0  0
 35 36  1  0  0  0  0
 35102  1  0  0  0  0
 36103  1  0  0  0  0
 37 38  1  0  0  0  0
 37104  1  0  0  0  0
 38 39  1  0  0  0  0
 38 41  1  0  0  0  0
 38105  1  1  0  0  0
 39 40  2  0  0  0  0
 39 45  1  0  0  0  0
 41 42  1  0  0  0  0
 41106  1  0  0  0  0
 41107  1  0  0  0  0
 42 43  1  0  0  0  0
 42 44  2  0  0  0  0
 45 46  1  0  0  0  0
 45108  1  0  0  0  0
 46 47  1  0  0  0  0
 46 49  1  0  0  0  0
 46109  1  6  0  0  0
 47 48  2  0  0  0  0
 47 54  1  0  0  0  0
 49 50  1  0  0  0  0
 49110  1  0  0  0  0
 49111  1  0  0  0  0
 50 51  1  0  0  0  0
 50112  1  0  0  0  0
 50113  1  0  0  0  0
 51 52  1  0  0  0  0
 51 53  2  0  0  0  0
 54 55  1  0  0  0  0
 54114  1  0  0  0  0
 55 56  1  0  0  0  0
 55 58  1  0  0  0  0
 55115  1  1  0  0  0
 56 57  2  0  0  0  0
 56 61  1  0  0  0  0
 58 59  1  0  0  0  0
 58 60  1  0  0  0  0
 58116  1  1  0  0  0
 59117  1  0  0  0  0
 60118  1  0  0  0  0
 60119  1  0  0  0  0
 60120  1  0  0  0  0
 61 62  1  0  0  0  0
 61 67  1  0  0  0  0
 62 63  1  0  0  0  0
 62 65  1  0  0  0  0
 62121  1  6  0  0  0
 63 64  1  0  0  0  0
 63 68  2  0  0  0  0
 65 66  1  0  0  0  0
 65122  1  0  0  0  0
 65123  1  0  0  0  0
 66 67  1  0  0  0  0
 66124  1  0  0  0  0
 66125  1  0  0  0  0
 67126  1  0  0  0  0
 67127  1  0  0  0  0
M  CHG  4   1   1  43  -1  52  -1  64  -1
M  END
