4oz3_ligand
 OpenBabel08222323353D

 22 23  0  0  0  0  0  0  0  0999 V2000
   19.1020   20.7380   -6.8620 C   0  0  0  0  0  0  0  0  0  0  0  0
   17.6790   21.1170   -6.8630 C   0  0  0  0  0  0  0  0  0  0  0  0
   17.0880   22.3760   -6.8780 C   0  0  0  0  0  0  0  0  0  0  0  0
   17.6850   23.7260   -6.9010 C   0  0  0  0  0  0  0  0  0  0  0  0
   17.0370   24.7690   -7.5590 C   0  0  0  0  0  0  0  0  0  0  0  0
   17.5940   26.0330   -7.6010 C   0  0  0  0  0  0  0  0  0  0  0  0
   18.8010   26.2750   -6.9880 C   0  0  0  0  0  0  0  0  0  0  0  0
   19.4580   25.2610   -6.3360 C   0  0  0  0  0  0  0  0  0  0  0  0
   18.9130   23.9890   -6.2990 C   0  0  0  0  0  0  0  0  0  0  0  0
   19.2540   19.5010   -7.0680 F   0  0  0  0  0  0  0  0  0  0  0  0
   19.7090   20.9880   -5.7120 F   0  0  0  0  0  0  0  0  0  0  0  0
   19.8060   21.3620   -7.8140 F   0  0  0  0  0  0  0  0  0  0  0  0
   16.7830   20.1380   -6.8570 N   0  0  0  0  0  0  0  0  0  0  0  0
   15.5960   20.7810   -6.8640 N   0  0  0  0  0  0  0  0  0  0  0  0
   15.7400   22.1150   -6.8780 C   0  0  0  0  0  0  0  0  0  0  0  0
   16.0847   24.5869   -8.0438 H   0  0  0  0  0  0  0  0  0  0  0  0
   17.0789   26.8347   -8.1177 H   0  0  0  0  0  0  0  0  0  0  0  0
   19.2344   27.2681   -7.0196 H   0  0  0  0  0  0  0  0  0  0  0  0
   20.4063   25.4570   -5.8488 H   0  0  0  0  0  0  0  0  0  0  0  0
   19.4469   23.1904   -5.7969 H   0  0  0  0  0  0  0  0  0  0  0  0
   14.6840   20.3023   -6.8591 H   0  0  0  0  0  0  0  0  0  0  0  0
   14.9384   22.8521   -6.8876 H   0  0  0  0  0  0  0  0  0  0  0  0
  1  2  1  0  0  0  0
  1 10  1  0  0  0  0
  1 11  1  0  0  0  0
  1 12  1  0  0  0  0
  2  3  1  0  0  0  0
  2 13  2  0  0  0  0
  3  4  1  0  0  0  0
  3 15  2  0  0  0  0
  4  5  2  0  0  0  0
  4  9  1  0  0  0  0
  5  6  1  0  0  0  0
  5 16  1  0  0  0  0
  6  7  2  0  0  0  0
  6 17  1  0  0  0  0
  7  8  1  0  0  0  0
  7 18  1  0  0  0  0
  8  9  2  0  0  0  0
  8 19  1  0  0  0  0
  9 20  1  0  0  0  0
 13 14  1  0  0  0  0
 14 15  1  0  0  0  0
 14 21  1  0  0  0  0
 15 22  1  0  0  0  0
M  END
