4ozl_ligand
 OpenBabel08222323353D

 35 37  0  0  1  0  0  0  0  0999 V2000
   55.9730   90.4040  106.3820 P   0  0  0  0  0  0  0  0  0  0  0  0
   55.6170   91.4870  105.3990 O   0  0  0  0  0  1  0  0  0  0  0  0
   57.3730   89.8330  106.3170 O   0  0  0  0  0  1  0  0  0  0  0  0
   55.6570   90.9190  107.7700 O   0  0  0  0  0  0  0  0  0  0  0  0
   54.9330   89.2180  106.2390 O   0  0  0  0  0  0  0  0  0  0  0  0
   54.9200   88.4030  105.0820 C   0  0  0  0  0  0  0  0  0  0  0  0
   53.5920   87.7230  104.9410 C   0  0  1  0  0  0  0  0  0  0  0  0
   53.2760   87.0500  106.1880 O   0  0  0  0  0  0  0  0  0  0  0  0
   52.4110   88.6580  104.7180 C   0  0  1  0  0  0  0  0  0  0  0  0
   52.2450   89.0210  103.3590 O   0  0  0  0  0  0  0  0  0  0  0  0
   51.2460   87.8600  105.2740 C   0  0  1  0  0  0  0  0  0  0  0  0
   50.8530   86.8630  104.3410 O   0  0  0  0  0  0  0  0  0  0  0  0
   51.8990   87.1650  106.4620 C   0  0  2  0  0  0  0  0  0  0  0  0
   51.7380   87.9080  107.7300 N   0  0  0  0  0  0  0  0  0  0  0  0
   52.6670   88.6990  108.3170 C   0  0  0  0  0  0  0  0  0  0  0  0
   52.2110   89.1870  109.5010 N   0  0  0  0  0  0  0  0  0  0  0  0
   50.9680   88.6720  109.6870 C   0  0  0  0  0  0  0  0  0  0  0  0
   49.9180   88.7820  110.7110 C   0  0  0  0  0  0  0  0  0  0  0  0
   50.1160   89.5330  111.8270 N   0  0  0  0  0  0  0  0  0  0  0  0
   48.7780   88.0870  110.5130 N   0  0  0  0  0  0  0  0  0  0  0  0
   48.5710   87.3320  109.4140 C   0  0  0  0  0  0  0  0  0  0  0  0
   49.4820   87.2000  108.4320 N   0  0  0  0  0  0  0  0  0  0  0  0
   50.6720   87.8380  108.5210 C   0  0  0  0  0  0  0  0  0  0  0  0
   55.7103   87.6424  105.1647 H   0  0  0  0  0  0  0  0  0  0  0  0
   55.1038   89.0279  104.1956 H   0  0  0  0  0  0  0  0  0  0  0  0
   53.6526   87.0025  104.1120 H   0  0  0  0  0  0  0  0  0  0  0  0
   52.5457   89.5809  105.3013 H   0  0  0  0  0  0  0  0  0  0  0  0
   53.0276   89.4640  103.0529 H   0  0  0  0  0  0  0  0  0  0  0  0
   50.3957   88.4959  105.5614 H   0  0  0  0  0  0  0  0  0  0  0  0
   50.1239   86.3683  104.6962 H   0  0  0  0  0  0  0  0  0  0  0  0
   51.4556   86.1651  106.5782 H   0  0  0  0  0  0  0  0  0  0  0  0
   53.6481   88.9153  107.8969 H   0  0  0  0  0  0  0  0  0  0  0  0
   49.3745   89.6037  112.5384 H   0  0  0  0  0  0  0  0  0  0  0  0
   51.0075   90.0312  111.9610 H   0  0  0  0  0  0  0  0  0  0  0  0
   47.6273   86.8075  109.3175 H   0  0  0  0  0  0  0  0  0  0  0  0
  1  2  1  0  0  0  0
  1  3  1  0  0  0  0
  1  4  2  0  0  0  0
  1  5  1  0  0  0  0
  5  6  1  0  0  0  0
  6  7  1  0  0  0  0
  6 24  1  0  0  0  0
  6 25  1  0  0  0  0
  7  8  1  0  0  0  0
  7  9  1  0  0  0  0
  7 26  1  6  0  0  0
  8 13  1  0  0  0  0
  9 10  1  0  0  0  0
  9 11  1  0  0  0  0
  9 27  1  1  0  0  0
 10 28  1  0  0  0  0
 11 12  1  0  0  0  0
 11 13  1  0  0  0  0
 11 29  1  1  0  0  0
 12 30  1  0  0  0  0
 13 14  1  0  0  0  0
 13 31  1  1  0  0  0
 14 15  1  0  0  0  0
 14 23  1  0  0  0  0
 15 16  2  0  0  0  0
 15 32  1  0  0  0  0
 16 17  1  0  0  0  0
 17 18  2  0  0  0  0
 17 23  1  0  0  0  0
 18 19  1  0  0  0  0
 18 20  1  0  0  0  0
 19 33  1  0  0  0  0
 19 34  1  0  0  0  0
 20 21  2  0  0  0  0
 21 22  1  0  0  0  0
 21 35  1  0  0  0  0
 22 23  2  0  0  0  0
M  END
