4ozo_ligand
 OpenBabel08222323353D

 36 37  0  0  1  0  0  0  0  0999 V2000
   29.8180  -32.0470    1.1680 O   0  0  0  0  0  0  0  0  0  0  0  0
   29.0270  -32.1340    2.3860 N   0  0  0  0  0  0  0  0  0  0  0  0
   28.9150  -33.3240    3.0240 O   0  0  0  0  0  0  0  0  0  0  0  0
   28.4600  -30.9980    2.8330 C   0  0  0  0  0  0  0  0  0  0  0  0
   28.6140  -29.8450    2.0680 C   0  0  0  0  0  0  0  0  0  0  0  0
   28.0560  -28.6420    2.4660 C   0  0  0  0  0  0  0  0  0  0  0  0
   27.3170  -28.5890    3.6350 C   0  0  0  0  0  0  0  0  0  0  0  0
   27.1450  -29.7420    4.3900 C   0  0  0  0  0  0  0  0  0  0  0  0
   27.6840  -30.9620    3.9970 C   0  0  0  0  0  0  0  0  0  0  0  0
   27.4200  -32.3240    5.0610 S   0  0  0  0  0  0  0  0  0  0  0  0
   26.1130  -31.7210    6.1220 C   0  0  2  0  0  0  0  0  0  0  0  0
   26.5640  -30.8030    7.1790 O   0  0  0  0  0  0  0  0  0  0  0  0
   25.4430  -30.3960    7.9770 C   0  0  2  0  0  0  0  0  0  0  0  0
   25.9500  -29.4290    9.0480 C   0  0  0  0  0  0  0  0  0  0  0  0
   26.5440  -28.2930    8.4170 O   0  0  0  0  0  0  0  0  0  0  0  0
   24.7820  -31.6070    8.6470 C   0  0  2  0  0  0  0  0  0  0  0  0
   25.7230  -32.2940    9.4780 O   0  0  0  0  0  0  0  0  0  0  0  0
   24.3340  -32.5310    7.5510 C   0  0  2  0  0  0  0  0  0  0  0  0
   23.6660  -33.7160    8.0740 O   0  0  0  0  0  0  0  0  0  0  0  0
   25.5610  -32.9450    6.7600 C   0  0  1  0  0  0  0  0  0  0  0  0
   25.0850  -33.8050    5.7450 O   0  0  0  0  0  0  0  0  0  0  0  0
   29.1805  -29.8899    1.1449 H   0  0  0  0  0  0  0  0  0  0  0  0
   28.1967  -27.7494    1.8672 H   0  0  0  0  0  0  0  0  0  0  0  0
   26.8753  -27.6537    3.9592 H   0  0  0  0  0  0  0  0  0  0  0  0
   26.5751  -29.6894    5.3106 H   0  0  0  0  0  0  0  0  0  0  0  0
   25.3469  -31.2159    5.5154 H   0  0  0  0  0  0  0  0  0  0  0  0
   24.7041  -29.8888    7.3393 H   0  0  0  0  0  0  0  0  0  0  0  0
   26.6995  -29.9348    9.6744 H   0  0  0  0  0  0  0  0  0  0  0  0
   25.1080  -29.1019    9.6757 H   0  0  0  0  0  0  0  0  0  0  0  0
   27.2707  -28.5771    7.8751 H   0  0  0  0  0  0  0  0  0  0  0  0
   23.9214  -31.2821    9.2502 H   0  0  0  0  0  0  0  0  0  0  0  0
   26.4524  -32.5933    8.9480 H   0  0  0  0  0  0  0  0  0  0  0  0
   23.6356  -31.9943    6.8921 H   0  0  0  0  0  0  0  0  0  0  0  0
   23.3992  -34.2724    7.3518 H   0  0  0  0  0  0  0  0  0  0  0  0
   26.3116  -33.4396    7.3940 H   0  0  0  0  0  0  0  0  0  0  0  0
   24.4629  -33.3367    5.2007 H   0  0  0  0  0  0  0  0  0  0  0  0
  1  2  2  0  0  0  0
  2  3  2  0  0  0  0
  2  4  1  0  0  0  0
  4  5  2  0  0  0  0
  4  9  1  0  0  0  0
  5  6  1  0  0  0  0
  5 22  1  0  0  0  0
  6  7  2  0  0  0  0
  6 23  1  0  0  0  0
  7  8  1  0  0  0  0
  7 24  1  0  0  0  0
  8  9  2  0  0  0  0
  8 25  1  0  0  0  0
  9 10  1  0  0  0  0
 10 11  1  0  0  0  0
 11 12  1  0  0  0  0
 11 20  1  0  0  0  0
 11 26  1  6  0  0  0
 12 13  1  0  0  0  0
 13 14  1  0  0  0  0
 13 16  1  0  0  0  0
 13 27  1  6  0  0  0
 14 15  1  0  0  0  0
 14 28  1  0  0  0  0
 14 29  1  0  0  0  0
 15 30  1  0  0  0  0
 16 17  1  0  0  0  0
 16 18  1  0  0  0  0
 16 31  1  1  0  0  0
 17 32  1  0  0  0  0
 18 19  1  0  0  0  0
 18 20  1  0  0  0  0
 18 33  1  6  0  0  0
 19 34  1  0  0  0  0
 20 21  1  0  0  0  0
 20 35  1  1  0  0  0
 21 36  1  0  0  0  0
M  END
