4p0b_ligand
 OpenBabel08222323353D

 63 63  0  0  1  0  0  0  0  0999 V2000
   10.6380  -12.8900   -3.8640 N   0  3  0  0  0  0  0  0  0  0  0  0
   11.0610  -12.1510   -2.6830 C   0  0  2  0  0  0  0  0  0  0  0  0
   10.0500  -11.0710   -2.3150 C   0  0  0  0  0  0  0  0  0  0  0  0
    9.2920  -11.2220   -1.3580 O   0  0  0  0  0  0  0  0  0  0  0  0
   12.4440  -11.5320   -2.8960 C   0  0  0  0  0  0  0  0  0  0  0  0
   13.5590  -12.3880   -2.3260 C   0  0  0  0  0  0  0  0  0  0  0  0
   13.3390  -13.6030   -2.1280 O   0  5  0  0  0  0  0  0  0  0  0  0
   14.6560  -11.8470   -2.0710 O   0  0  0  0  0  0  0  0  0  0  0  0
   10.0410   -9.9810   -3.0770 N   0  0  0  0  0  0  0  0  0  0  0  0
    9.2320   -8.8170   -2.7290 C   0  0  2  0  0  0  0  0  0  0  0  0
    7.9050   -8.7760   -3.4850 C   0  0  0  0  0  0  0  0  0  0  0  0
    7.1130   -7.8500   -3.3090 O   0  0  0  0  0  0  0  0  0  0  0  0
   10.0120   -7.5280   -2.9930 C   0  0  0  0  0  0  0  0  0  0  0  0
   11.3580   -7.4490   -2.2950 C   0  0  0  0  0  0  0  0  0  0  0  0
   12.2410   -5.9370   -2.7200 S   0  0  0  0  0  0  0  0  0  0  0  0
   10.9910   -4.7080   -2.3510 C   0  0  0  0  0  0  0  0  0  0  0  0
    7.6620   -9.7840   -4.3170 N   0  0  0  0  0  0  0  0  0  0  0  0
    6.4740   -9.8100   -5.1710 C   0  0  2  0  0  0  0  0  0  0  0  0
    5.6890  -11.1100   -5.0360 C   0  0  0  0  0  0  0  0  0  0  0  0
    4.4850  -11.1450   -5.2880 O   0  0  0  0  0  0  0  0  0  0  0  0
    6.8390   -9.5460   -6.6350 C   0  0  0  0  0  0  0  0  0  0  0  0
    7.4960   -8.2070   -6.8630 C   0  0  0  0  0  0  0  0  0  0  0  0
    6.7320   -7.0630   -7.0500 C   0  0  0  0  0  0  0  0  0  0  0  0
    8.8800   -8.0820   -6.8830 C   0  0  0  0  0  0  0  0  0  0  0  0
    7.3230   -5.8340   -7.2570 C   0  0  0  0  0  0  0  0  0  0  0  0
    9.4810   -6.8540   -7.0900 C   0  0  0  0  0  0  0  0  0  0  0  0
    8.6960   -5.7350   -7.2760 C   0  0  0  0  0  0  0  0  0  0  0  0
    9.2780   -4.5070   -7.4830 O   0  0  0  0  0  0  0  0  0  0  0  0
    6.3900  -12.1800   -4.6700 N   0  0  0  0  0  0  0  0  0  0  0  0
    5.7800  -13.4950   -4.4870 C   0  0  2  0  0  0  0  0  0  0  0  0
    4.7120  -13.4810   -3.3950 C   0  0  0  0  0  0  0  0  0  0  0  0
    4.3460  -14.5260   -2.8560 O   0  5  0  0  0  0  0  0  0  0  0  0
    6.8520  -14.5320   -4.1470 C   0  0  0  0  0  0  0  0  0  0  0  0
   11.3242  -13.5953   -4.0827 H   0  0  0  0  0  0  0  0  0  0  0  0
   10.5478  -12.2562   -4.6426 H   0  0  0  0  0  0  0  0  0  0  0  0
    9.7492  -13.3303   -3.6844 H   0  0  0  0  0  0  0  0  0  0  0  0
   11.1265  -12.8590   -1.8437 H   0  0  0  0  0  0  0  0  0  0  0  0
   12.4691  -10.5479   -2.4052 H   0  0  0  0  0  0  0  0  0  0  0  0
   12.6121  -11.4076   -3.9759 H   0  0  0  0  0  0  0  0  0  0  0  0
   10.6002   -9.9584   -3.9057 H   0  0  0  0  0  0  0  0  0  0  0  0
    9.0078   -8.8729   -1.6536 H   0  0  0  0  0  0  0  0  0  0  0  0
    9.3990   -6.6803   -2.6529 H   0  0  0  0  0  0  0  0  0  0  0  0
   10.1823   -7.4459   -4.0766 H   0  0  0  0  0  0  0  0  0  0  0  0
   11.9671   -8.3141   -2.5960 H   0  0  0  0  0  0  0  0  0  0  0  0
   11.1975   -7.4743   -1.2071 H   0  0  0  0  0  0  0  0  0  0  0  0
   11.3887   -3.7049   -2.5647 H   0  0  0  0  0  0  0  0  0  0  0  0
   10.7143   -4.7740   -1.2884 H   0  0  0  0  0  0  0  0  0  0  0  0
   10.1025   -4.8903   -2.9733 H   0  0  0  0  0  0  0  0  0  0  0  0
    8.3088  -10.5454   -4.3604 H   0  0  0  0  0  0  0  0  0  0  0  0
    5.8158   -8.9933   -4.8398 H   0  0  0  0  0  0  0  0  0  0  0  0
    5.9185   -9.5882   -7.2357 H   0  0  0  0  0  0  0  0  0  0  0  0
    7.5307  -10.3337   -6.9682 H   0  0  0  0  0  0  0  0  0  0  0  0
    5.6507   -7.1370   -7.0330 H   0  0  0  0  0  0  0  0  0  0  0  0
    9.4976   -8.9603   -6.7341 H   0  0  0  0  0  0  0  0  0  0  0  0
    6.7104   -4.9518   -7.4038 H   0  0  0  0  0  0  0  0  0  0  0  0
   10.5617   -6.7712   -7.1060 H   0  0  0  0  0  0  0  0  0  0  0  0
    8.5998   -3.8507   -7.5917 H   0  0  0  0  0  0  0  0  0  0  0  0
    7.3727  -12.0803   -4.5141 H   0  0  0  0  0  0  0  0  0  0  0  0
    5.3004  -13.7846   -5.4336 H   0  0  0  0  0  0  0  0  0  0  0  0
    4.1988  -12.3860   -3.0411 O   0  0  0  0  0  0  0  0  0  0  0  0
    6.3801  -15.5164   -4.0119 H   0  0  0  0  0  0  0  0  0  0  0  0
    7.3632  -14.2399   -3.2178 H   0  0  0  0  0  0  0  0  0  0  0  0
    7.5835  -14.5855   -4.9667 H   0  0  0  0  0  0  0  0  0  0  0  0
  1  2  1  0  0  0  0
  1 34  1  0  0  0  0
  1 35  1  0  0  0  0
  1 36  1  0  0  0  0
  2  3  1  0  0  0  0
  2  5  1  0  0  0  0
  2 37  1  1  0  0  0
  3  4  2  0  0  0  0
  3  9  1  0  0  0  0
  5  6  1  0  0  0  0
  5 38  1  0  0  0  0
  5 39  1  0  0  0  0
  6  7  1  0  0  0  0
  6  8  2  0  0  0  0
  9 10  1  0  0  0  0
  9 40  1  0  0  0  0
 10 11  1  0  0  0  0
 10 13  1  0  0  0  0
 10 41  1  1  0  0  0
 11 12  2  0  0  0  0
 11 17  1  0  0  0  0
 13 14  1  0  0  0  0
 13 42  1  0  0  0  0
 13 43  1  0  0  0  0
 14 15  1  0  0  0  0
 14 44  1  0  0  0  0
 14 45  1  0  0  0  0
 15 16  1  0  0  0  0
 16 46  1  0  0  0  0
 16 47  1  0  0  0  0
 16 48  1  0  0  0  0
 17 18  1  0  0  0  0
 17 49  1  0  0  0  0
 18 19  1  0  0  0  0
 18 21  1  0  0  0  0
 18 50  1  1  0  0  0
 19 20  2  0  0  0  0
 19 29  1  0  0  0  0
 21 22  1  0  0  0  0
 21 51  1  0  0  0  0
 21 52  1  0  0  0  0
 22 23  2  0  0  0  0
 22 24  1  0  0  0  0
 23 25  1  0  0  0  0
 23 53  1  0  0  0  0
 24 26  2  0  0  0  0
 24 54  1  0  0  0  0
 25 27  2  0  0  0  0
 25 55  1  0  0  0  0
 26 27  1  0  0  0  0
 26 56  1  0  0  0  0
 27 28  1  0  0  0  0
 28 57  1  0  0  0  0
 29 30  1  0  0  0  0
 29 58  1  0  0  0  0
 30 31  1  0  0  0  0
 30 33  1  0  0  0  0
 30 59  1  6  0  0  0
 31 32  1  0  0  0  0
 31 60  2  0  0  0  0
 33 61  1  0  0  0  0
 33 62  1  0  0  0  0
 33 63  1  0  0  0  0
M  CHG  3   1   1   7  -1  32  -1
M  END
