4p0v_ligand
 OpenBabel08222323353D

 51 53  0  0  1  0  0  0  0  0999 V2000
   -5.7390   32.2870  -14.3490 O   0  0  0  0  0  0  0  0  0  0  0  0
   -6.5800   33.2250  -14.4610 C   0  0  0  0  0  0  0  0  0  0  0  0
   -7.2920   33.8100  -13.3740 C   0  0  1  0  0  0  0  0  0  0  0  0
   -7.0560   33.2910  -12.1420 O   0  0  0  0  0  0  0  0  0  0  0  0
   -8.1890   34.9200  -13.4790 C   0  0  0  0  0  0  0  0  0  0  0  0
   -8.9780   35.4090  -12.3750 C   0  0  1  0  0  0  0  0  0  0  0  0
  -10.0100   34.3160  -12.2450 C   0  0  0  0  0  0  0  0  0  0  0  0
   -8.4800   35.5060  -11.0730 C   0  0  0  0  0  0  0  0  0  0  0  0
   -9.7410   35.4380  -10.0770 C   0  0  0  0  0  0  0  0  0  0  0  0
  -11.0740   35.9700  -10.6200 C   0  0  0  0  0  0  0  0  0  0  0  0
  -10.6860   37.1840  -11.6100 C   0  0  0  0  0  0  0  0  0  0  0  0
  -11.8920   37.7070  -12.3410 C   0  0  0  0  0  0  0  0  0  0  0  0
  -10.0500   38.3610  -10.8160 C   0  0  0  0  0  0  0  0  0  0  0  0
   -9.6370   36.7210  -12.7420 C   0  0  2  0  0  0  0  0  0  0  0  0
  -10.0960   36.8260  -14.1410 C   0  0  0  0  0  0  0  0  0  0  0  0
  -11.1100   37.5050  -14.4760 O   0  0  0  0  0  0  0  0  0  0  0  0
   -9.2370   36.3200  -15.1220 C   0  0  0  0  0  0  0  0  0  0  0  0
   -8.3580   35.4270  -14.7500 C   0  0  0  0  0  0  0  0  0  0  0  0
   -7.7830   34.8410  -15.7680 C   0  0  0  0  0  0  0  0  0  0  0  0
   -6.8710   33.8050  -15.7060 C   0  0  0  0  0  0  0  0  0  0  0  0
   -6.2970   33.3550  -16.8970 C   0  0  0  0  0  0  0  0  0  0  0  0
   -5.8250   34.4490  -17.7450 C   0  0  0  0  0  0  0  0  0  0  0  0
   -7.3720   32.7490  -17.7740 C   0  0  0  0  0  0  0  0  0  0  0  0
   -8.1297   33.1172  -13.5422 H   0  0  0  0  0  0  0  0  0  0  0  0
   -7.5802   33.7538  -11.4989 H   0  0  0  0  0  0  0  0  0  0  0  0
   -9.5125   33.3719  -11.9783 H   0  0  0  0  0  0  0  0  0  0  0  0
  -10.5380   34.1945  -13.2023 H   0  0  0  0  0  0  0  0  0  0  0  0
  -10.7318   34.5847  -11.4596 H   0  0  0  0  0  0  0  0  0  0  0  0
   -7.9477   36.4598  -10.9429 H   0  0  0  0  0  0  0  0  0  0  0  0
   -7.7928   34.6717  -10.8689 H   0  0  0  0  0  0  0  0  0  0  0  0
   -9.4894   36.0219   -9.1794 H   0  0  0  0  0  0  0  0  0  0  0  0
   -9.8905   34.3843   -9.7990 H   0  0  0  0  0  0  0  0  0  0  0  0
  -11.7064   36.3333   -9.7966 H   0  0  0  0  0  0  0  0  0  0  0  0
  -11.6066   35.1808  -11.1708 H   0  0  0  0  0  0  0  0  0  0  0  0
  -11.5899   38.5309  -13.0043 H   0  0  0  0  0  0  0  0  0  0  0  0
  -12.6310   38.0740  -11.6136 H   0  0  0  0  0  0  0  0  0  0  0  0
  -12.3370   36.8986  -12.9398 H   0  0  0  0  0  0  0  0  0  0  0  0
   -9.1642   38.0003  -10.2725 H   0  0  0  0  0  0  0  0  0  0  0  0
  -10.7835   38.7583  -10.0990 H   0  0  0  0  0  0  0  0  0  0  0  0
   -9.7525   39.1565  -11.5150 H   0  0  0  0  0  0  0  0  0  0  0  0
   -8.8268   37.4625  -12.6810 H   0  0  0  0  0  0  0  0  0  0  0  0
   -8.6836   37.1706  -15.5465 H   0  0  0  0  0  0  0  0  0  0  0  0
   -9.8617   35.8624  -15.9032 H   0  0  0  0  0  0  0  0  0  0  0  0
   -8.0485   35.2045  -16.7596 H   0  0  0  0  0  0  0  0  0  0  0  0
   -5.4902   32.6406  -16.6761 H   0  0  0  0  0  0  0  0  0  0  0  0
   -5.3847   34.0363  -18.6647 H   0  0  0  0  0  0  0  0  0  0  0  0
   -5.0646   35.0308  -17.2035 H   0  0  0  0  0  0  0  0  0  0  0  0
   -6.6707   35.1027  -18.0047 H   0  0  0  0  0  0  0  0  0  0  0  0
   -7.8288   31.8931  -17.2555 H   0  0  0  0  0  0  0  0  0  0  0  0
   -6.9251   32.4087  -18.7197 H   0  0  0  0  0  0  0  0  0  0  0  0
   -8.1432   33.5047  -17.9839 H   0  0  0  0  0  0  0  0  0  0  0  0
  1  2  2  0  0  0  0
  2  3  1  0  0  0  0
  2 20  1  0  0  0  0
  3  4  1  0  0  0  0
  3  5  1  0  0  0  0
  3 24  1  6  0  0  0
  4 25  1  0  0  0  0
  5  6  1  0  0  0  0
  5 18  2  0  0  0  0
  6  7  1  1  0  0  0
  6  8  1  0  0  0  0
  6 14  1  0  0  0  0
  7 26  1  0  0  0  0
  7 27  1  0  0  0  0
  7 28  1  0  0  0  0
  8  9  1  0  0  0  0
  8 29  1  0  0  0  0
  8 30  1  0  0  0  0
  9 10  1  0  0  0  0
  9 31  1  0  0  0  0
  9 32  1  0  0  0  0
 10 11  1  0  0  0  0
 10 33  1  0  0  0  0
 10 34  1  0  0  0  0
 11 12  1  0  0  0  0
 11 13  1  0  0  0  0
 11 14  1  0  0  0  0
 12 35  1  0  0  0  0
 12 36  1  0  0  0  0
 12 37  1  0  0  0  0
 13 38  1  0  0  0  0
 13 39  1  0  0  0  0
 13 40  1  0  0  0  0
 14 15  1  0  0  0  0
 14 41  1  1  0  0  0
 15 16  2  0  0  0  0
 15 17  1  0  0  0  0
 17 18  1  0  0  0  0
 17 42  1  0  0  0  0
 17 43  1  0  0  0  0
 18 19  1  0  0  0  0
 19 20  2  0  0  0  0
 19 44  1  0  0  0  0
 20 21  1  0  0  0  0
 21 22  1  0  0  0  0
 21 23  1  0  0  0  0
 21 45  1  0  0  0  0
 22 46  1  0  0  0  0
 22 47  1  0  0  0  0
 22 48  1  0  0  0  0
 23 49  1  0  0  0  0
 23 50  1  0  0  0  0
 23 51  1  0  0  0  0
M  END
