4p0w_ligand
 OpenBabel08222323353D

 53 55  0  0  1  0  0  0  0  0999 V2000
   34.8500   10.3290    6.4340 C   0  0  0  0  0  0  0  0  0  0  0  0
   36.3960    8.1570    1.0430 C   0  0  0  0  0  0  0  0  0  0  0  0
   34.5430   10.5360    3.8500 C   0  0  0  0  0  0  0  0  0  0  0  0
   35.2760    6.2050    2.4370 C   0  0  0  0  0  0  0  0  0  0  0  0
   30.1230    5.2340   -2.0500 O   0  0  0  0  0  0  0  0  0  0  0  0
   32.3290    5.3860    2.5690 O   0  0  0  0  0  0  0  0  0  0  0  0
   30.1600    4.6230   -0.0420 C   0  0  0  0  0  0  0  0  0  0  0  0
   30.7680    4.6880    1.1930 C   0  0  0  0  0  0  0  0  0  0  0  0
   31.8950    6.1940   -0.8410 C   0  0  0  0  0  0  0  0  0  0  0  0
   32.0830    7.6960    5.5500 C   0  0  0  0  0  0  0  0  0  0  0  0
   33.2850    8.2960    6.4000 C   0  0  0  0  0  0  0  0  0  0  0  0
   32.6260    7.1030    4.2310 C   0  0  0  0  0  0  0  0  0  0  0  0
   36.1990    8.6140    3.0820 C   0  0  0  0  0  0  0  0  0  0  0  0
   35.6480    8.3570    4.4300 C   0  0  0  0  0  0  0  0  0  0  0  0
   33.6980    7.1320    0.6210 C   0  0  0  0  0  0  0  0  0  0  0  0
   34.1890    9.2380    5.7560 C   0  0  2  0  0  0  0  0  0  0  0  0
   32.5640    6.2570    0.4330 C   0  0  0  0  0  0  0  0  0  0  0  0
   30.7310    5.3930   -1.0080 C   0  0  0  0  0  0  0  0  0  0  0  0
   31.9070    5.4700    1.4420 C   0  0  0  0  0  0  0  0  0  0  0  0
   35.3540    8.4040    1.9320 C   0  0  2  0  0  0  0  0  0  0  0  0
   33.5670    8.0850    3.3930 C   0  0  1  0  0  0  0  0  0  0  0  0
   34.4810    9.0640    4.4060 C   0  0  1  0  0  0  0  0  0  0  0  0
   34.4640    7.4580    2.0950 C   0  0  2  0  0  0  0  0  0  0  0  0
   34.5322   10.3527    7.4868 H   0  0  0  0  0  0  0  0  0  0  0  0
   34.5816   11.2789    5.9485 H   0  0  0  0  0  0  0  0  0  0  0  0
   35.9395   10.1861    6.3830 H   0  0  0  0  0  0  0  0  0  0  0  0
   37.0622    9.0316    1.0068 H   0  0  0  0  0  0  0  0  0  0  0  0
   35.9854    7.9672    0.0403 H   0  0  0  0  0  0  0  0  0  0  0  0
   36.9641    7.2771    1.3792 H   0  0  0  0  0  0  0  0  0  0  0  0
   35.1454   11.1588    4.5276 H   0  0  0  0  0  0  0  0  0  0  0  0
   33.5245   10.9461    3.7835 H   0  0  0  0  0  0  0  0  0  0  0  0
   35.0025   10.5314    2.8506 H   0  0  0  0  0  0  0  0  0  0  0  0
   35.8233    5.8679    1.5444 H   0  0  0  0  0  0  0  0  0  0  0  0
   34.5964    5.4080    2.7731 H   0  0  0  0  0  0  0  0  0  0  0  0
   35.9914    6.4393    3.2390 H   0  0  0  0  0  0  0  0  0  0  0  0
   29.2864    4.0009   -0.2311 H   0  0  0  0  0  0  0  0  0  0  0  0
   30.3463    4.1071    2.0119 H   0  0  0  0  0  0  0  0  0  0  0  0
   32.2834    6.7643   -1.6835 H   0  0  0  0  0  0  0  0  0  0  0  0
   31.3612    8.4943    5.3226 H   0  0  0  0  0  0  0  0  0  0  0  0
   31.5843    6.9048    6.1290 H   0  0  0  0  0  0  0  0  0  0  0  0
   33.8932    7.4474    6.7463 H   0  0  0  0  0  0  0  0  0  0  0  0
   32.8447    8.8097    7.2673 H   0  0  0  0  0  0  0  0  0  0  0  0
   31.7677    6.8298    3.5996 H   0  0  0  0  0  0  0  0  0  0  0  0
   33.2045    6.1996    4.4744 H   0  0  0  0  0  0  0  0  0  0  0  0
   37.0759    7.9609    2.9618 H   0  0  0  0  0  0  0  0  0  0  0  0
   36.5194    9.6661    3.0593 H   0  0  0  0  0  0  0  0  0  0  0  0
   36.3234    8.7294    5.2143 H   0  0  0  0  0  0  0  0  0  0  0  0
   35.4609    7.2844    4.5862 H   0  0  0  0  0  0  0  0  0  0  0  0
   33.3735    8.1119    0.2408 H   0  0  0  0  0  0  0  0  0  0  0  0
   34.4862    6.7282   -0.0314 H   0  0  0  0  0  0  0  0  0  0  0  0
   33.3378    9.8929    5.5180 H   0  0  0  0  0  0  0  0  0  0  0  0
   34.8123    9.3203    1.6546 H   0  0  0  0  0  0  0  0  0  0  0  0
   32.8579    8.7692    2.9041 H   0  0  0  0  0  0  0  0  0  0  0  0
  1 24  1  0  0  0  0
  1 25  1  0  0  0  0
  1 26  1  0  0  0  0
  2 27  1  0  0  0  0
  2 28  1  0  0  0  0
  2 29  1  0  0  0  0
  3 30  1  0  0  0  0
  3 31  1  0  0  0  0
  3 32  1  0  0  0  0
  4 33  1  0  0  0  0
  4 34  1  0  0  0  0
  4 35  1  0  0  0  0
  7 36  1  0  0  0  0
  8  7  2  0  0  0  0
  8 37  1  0  0  0  0
  9 18  1  0  0  0  0
  9 38  1  0  0  0  0
 10 12  1  0  0  0  0
 10 39  1  0  0  0  0
 10 40  1  0  0  0  0
 11 10  1  0  0  0  0
 11 41  1  0  0  0  0
 11 42  1  0  0  0  0
 12 21  1  0  0  0  0
 12 43  1  0  0  0  0
 12 44  1  0  0  0  0
 13 14  1  0  0  0  0
 13 45  1  0  0  0  0
 13 46  1  0  0  0  0
 14 22  1  0  0  0  0
 14 47  1  0  0  0  0
 14 48  1  0  0  0  0
 15 17  1  0  0  0  0
 15 49  1  0  0  0  0
 15 50  1  0  0  0  0
 16  1  1  0  0  0  0
 16 11  1  0  0  0  0
 16 51  1  6  0  0  0
 17  9  2  0  0  0  0
 17 19  1  0  0  0  0
 18  5  2  0  0  0  0
 18  7  1  0  0  0  0
 19  6  2  0  0  0  0
 19  8  1  0  0  0  0
 20  2  1  0  0  0  0
 20 13  1  0  0  0  0
 20 23  1  0  0  0  0
 20 52  1  6  0  0  0
 21 22  1  0  0  0  0
 21 23  1  0  0  0  0
 21 53  1  6  0  0  0
 22  3  1  6  0  0  0
 22 16  1  0  0  0  0
 23  4  1  1  0  0  0
 23 15  1  0  0  0  0
M  END
