4p0x_ligand
 OpenBabel08222323353D

 49 51  0  0  1  0  0  0  0  0999 V2000
   -8.1760   35.9860  -17.3480 O   0  0  0  0  0  0  0  0  0  0  0  0
   -8.7460   36.2080  -16.2650 C   0  0  0  0  0  0  0  0  0  0  0  0
   -8.0240   36.0440  -15.0600 C   0  0  0  0  0  0  0  0  0  0  0  0
   -6.6360   35.6260  -15.0480 O   0  0  0  0  0  0  0  0  0  0  0  0
   -8.7150   36.2590  -13.8500 C   0  0  0  0  0  0  0  0  0  0  0  0
   -8.1390   36.1630  -12.5020 C   0  0  1  0  0  0  0  0  0  0  0  0
   -8.5770   34.8510  -11.8980 C   0  0  0  0  0  0  0  0  0  0  0  0
   -6.5970   36.2210  -12.3340 C   0  0  0  0  0  0  0  0  0  0  0  0
   -6.1220   37.6290  -12.0120 C   0  0  0  0  0  0  0  0  0  0  0  0
   -6.7940   38.4840  -10.9500 C   0  0  0  0  0  0  0  0  0  0  0  0
   -8.1180   37.9040  -10.5290 C   0  0  0  0  0  0  0  0  0  0  0  0
   -7.8140   36.7710   -9.6090 C   0  0  0  0  0  0  0  0  0  0  0  0
   -8.9490   39.0340   -9.8030 C   0  0  0  0  0  0  0  0  0  0  0  0
   -8.8440   37.3170  -11.7470 C   0  0  2  0  0  0  0  0  0  0  0  0
  -10.1740   36.8740  -11.5220 C   0  0  0  0  0  0  0  0  0  0  0  0
  -10.7060   36.6540  -10.4060 O   0  0  0  0  0  0  0  0  0  0  0  0
  -10.8310   36.7530  -12.7490 C   0  0  0  0  0  0  0  0  0  0  0  0
  -10.0780   36.6600  -13.9270 C   0  0  0  0  0  0  0  0  0  0  0  0
  -10.7190   36.7740  -15.1220 C   0  0  0  0  0  0  0  0  0  0  0  0
  -10.0840   36.5390  -16.2630 C   0  0  0  0  0  0  0  0  0  0  0  0
  -10.8110   36.7530  -17.4580 C   0  0  0  0  0  0  0  0  0  0  0  0
  -11.9110   37.8050  -17.1040 C   0  0  0  0  0  0  0  0  0  0  0  0
  -11.2810   35.5380  -18.4170 C   0  0  0  0  0  0  0  0  0  0  0  0
   -6.5596   34.7734  -15.4599 H   0  0  0  0  0  0  0  0  0  0  0  0
   -8.0832   34.0216  -12.4254 H   0  0  0  0  0  0  0  0  0  0  0  0
   -9.6680   34.7490  -11.9944 H   0  0  0  0  0  0  0  0  0  0  0  0
   -8.2990   34.8262  -10.8340 H   0  0  0  0  0  0  0  0  0  0  0  0
   -6.1232   35.8896  -13.2698 H   0  0  0  0  0  0  0  0  0  0  0  0
   -6.3015   35.5485  -11.5152 H   0  0  0  0  0  0  0  0  0  0  0  0
   -6.1868   38.1979  -12.9512 H   0  0  0  0  0  0  0  0  0  0  0  0
   -5.0680   37.5368  -11.7111 H   0  0  0  0  0  0  0  0  0  0  0  0
   -6.9589   39.4931  -11.3556 H   0  0  0  0  0  0  0  0  0  0  0  0
   -6.1353   38.5451  -10.0712 H   0  0  0  0  0  0  0  0  0  0  0  0
   -8.7542   36.3107   -9.2711 H   0  0  0  0  0  0  0  0  0  0  0  0
   -7.2554   37.1453   -8.7384 H   0  0  0  0  0  0  0  0  0  0  0  0
   -7.2082   36.0210  -10.1386 H   0  0  0  0  0  0  0  0  0  0  0  0
   -9.1538   39.8507  -10.5109 H   0  0  0  0  0  0  0  0  0  0  0  0
   -8.3723   39.4233   -8.9510 H   0  0  0  0  0  0  0  0  0  0  0  0
   -9.8997   38.6151   -9.4415 H   0  0  0  0  0  0  0  0  0  0  0  0
   -8.9088   38.1554  -12.4561 H   0  0  0  0  0  0  0  0  0  0  0  0
  -11.9190   36.7311  -12.7895 H   0  0  0  0  0  0  0  0  0  0  0  0
  -11.7689   37.0624  -15.1421 H   0  0  0  0  0  0  0  0  0  0  0  0
  -10.0998   37.2889  -18.1038 H   0  0  0  0  0  0  0  0  0  0  0  0
  -12.5163   38.0174  -17.9976 H   0  0  0  0  0  0  0  0  0  0  0  0
  -11.4329   38.7326  -16.7561 H   0  0  0  0  0  0  0  0  0  0  0  0
  -12.5581   37.4056  -16.3092 H   0  0  0  0  0  0  0  0  0  0  0  0
  -10.4309   34.8638  -18.5980 H   0  0  0  0  0  0  0  0  0  0  0  0
  -11.6374   35.9440  -19.3752 H   0  0  0  0  0  0  0  0  0  0  0  0
  -12.0942   34.9800  -17.9300 H   0  0  0  0  0  0  0  0  0  0  0  0
  1  2  2  0  0  0  0
  2  3  1  0  0  0  0
  2 20  1  0  0  0  0
  3  4  1  0  0  0  0
  3  5  2  0  0  0  0
  4 24  1  0  0  0  0
  5  6  1  0  0  0  0
  5 18  1  0  0  0  0
  6  7  1  1  0  0  0
  6  8  1  0  0  0  0
  6 14  1  0  0  0  0
  7 25  1  0  0  0  0
  7 26  1  0  0  0  0
  7 27  1  0  0  0  0
  8  9  1  0  0  0  0
  8 28  1  0  0  0  0
  8 29  1  0  0  0  0
  9 10  1  0  0  0  0
  9 30  1  0  0  0  0
  9 31  1  0  0  0  0
 10 11  1  0  0  0  0
 10 32  1  0  0  0  0
 10 33  1  0  0  0  0
 11 12  1  0  0  0  0
 11 13  1  0  0  0  0
 11 14  1  0  0  0  0
 12 34  1  0  0  0  0
 12 35  1  0  0  0  0
 12 36  1  0  0  0  0
 13 37  1  0  0  0  0
 13 38  1  0  0  0  0
 13 39  1  0  0  0  0
 14 15  1  0  0  0  0
 14 40  1  6  0  0  0
 15 16  2  0  0  0  0
 15 17  1  0  0  0  0
 17 18  2  0  0  0  0
 17 41  1  0  0  0  0
 18 19  1  0  0  0  0
 19 20  2  0  0  0  0
 19 42  1  0  0  0  0
 20 21  1  0  0  0  0
 21 22  1  0  0  0  0
 21 23  1  0  0  0  0
 21 43  1  0  0  0  0
 22 44  1  0  0  0  0
 22 45  1  0  0  0  0
 22 46  1  0  0  0  0
 23 47  1  0  0  0  0
 23 48  1  0  0  0  0
 23 49  1  0  0  0  0
M  END
