4p2t_ligand
 OpenBabel08222323353D

 67 70  0  0  0  0  0  0  0  0999 V2000
  -29.5080  -14.8020  -42.2630 C   0  0  0  0  0  0  0  0  0  0  0  0
  -29.2600  -20.9860  -42.7220 C   0  0  0  0  0  0  0  0  0  0  0  0
  -30.6110  -22.9090  -42.2250 C   0  0  0  0  0  0  0  0  0  0  0  0
  -29.7130  -23.7150  -42.9050 C   0  0  0  0  0  0  0  0  0  0  0  0
  -28.5900  -23.1600  -43.4940 C   0  0  0  0  0  0  0  0  0  0  0  0
  -25.9960  -20.8970  -43.0660 C   0  0  0  0  0  0  0  0  0  0  0  0
  -26.2190  -20.7590  -41.7020 C   0  0  0  0  0  0  0  0  0  0  0  0
  -23.6540  -20.4630  -42.7050 C   0  0  0  0  0  0  0  0  0  0  0  0
  -25.5170  -16.7800  -46.1810 C   0  0  0  0  0  0  0  0  0  0  0  0
  -26.2180  -16.3910  -44.8890 C   0  0  0  0  0  0  0  0  0  0  0  0
  -25.2130  -16.0570  -43.8010 C   0  0  0  0  0  0  0  0  0  0  0  0
  -24.2970  -17.2440  -43.6080 C   0  0  0  0  0  0  0  0  0  0  0  0
  -23.5550  -17.5750  -44.8870 C   0  0  0  0  0  0  0  0  0  0  0  0
  -24.0100  -16.7290  -46.0540 C   0  0  0  0  0  0  0  0  0  0  0  0
  -25.8470  -15.7140  -42.4590 C   0  0  0  0  0  0  0  0  0  0  0  0
  -27.3580  -15.8260  -42.4120 C   0  0  0  0  0  0  0  0  0  0  0  0
  -28.1460  -14.6890  -42.3160 C   0  0  0  0  0  0  0  0  0  0  0  0
  -30.0970  -16.0340  -42.2980 C   0  0  0  0  0  0  0  0  0  0  0  0
  -29.3030  -17.1650  -42.3910 C   0  0  0  0  0  0  0  0  0  0  0  0
  -27.9480  -17.0480  -42.4400 N   0  0  0  0  0  0  0  0  0  0  0  0
  -29.8910  -18.5550  -42.4290 C   0  0  0  0  0  0  0  0  0  0  0  0
  -31.0810  -18.7340  -42.2620 O   0  0  0  0  0  0  0  0  0  0  0  0
  -28.9560  -19.6010  -42.6490 N   0  0  0  0  0  0  0  0  0  0  0  0
  -28.3550  -21.7990  -43.3920 C   0  0  0  0  0  0  0  0  0  0  0  0
  -30.3820  -21.5440  -42.1260 C   0  0  0  0  0  0  0  0  0  0  0  0
  -27.1190  -21.2040  -44.0450 C   0  0  0  0  0  0  0  0  0  0  0  0
  -25.1660  -20.4750  -40.8450 C   0  0  0  0  0  0  0  0  0  0  0  0
  -24.7080  -20.7470  -43.5600 C   0  0  0  0  0  0  0  0  0  0  0  0
  -23.8830  -20.3270  -41.3450 C   0  0  0  0  0  0  0  0  0  0  0  0
  -29.9650  -25.2010  -43.0230 C   0  0  0  0  0  0  0  0  0  0  0  0
  -30.8680  -25.7160  -42.3930 O   0  0  0  0  0  0  0  0  0  0  0  0
  -29.1540  -25.9830  -43.8880 N   0  0  0  0  0  0  0  0  0  0  0  0
  -29.4220  -27.5950  -44.0480 S   0  0  0  0  0  0  0  0  0  0  0  0
  -30.7110  -27.8250  -44.6430 O   0  0  0  0  0  0  0  0  0  0  0  0
  -29.5800  -28.2580  -42.7820 O   0  0  0  0  0  0  0  0  0  0  0  0
  -28.1570  -28.3480  -45.0300 C   0  0  0  0  0  0  0  0  0  0  0  0
  -30.1219  -13.9113  -42.1930 H   0  0  0  0  0  0  0  0  0  0  0  0
  -31.4931  -23.3447  -41.7699 H   0  0  0  0  0  0  0  0  0  0  0  0
  -27.8943  -23.7909  -44.0353 H   0  0  0  0  0  0  0  0  0  0  0  0
  -27.2212  -20.8739  -41.3052 H   0  0  0  0  0  0  0  0  0  0  0  0
  -22.6513  -20.3474  -43.1002 H   0  0  0  0  0  0  0  0  0  0  0  0
  -25.8288  -16.0861  -46.9755 H   0  0  0  0  0  0  0  0  0  0  0  0
  -25.8148  -17.8040  -46.4507 H   0  0  0  0  0  0  0  0  0  0  0  0
  -26.8449  -17.2303  -44.5536 H   0  0  0  0  0  0  0  0  0  0  0  0
  -26.8518  -15.5114  -45.0749 H   0  0  0  0  0  0  0  0  0  0  0  0
  -24.6214  -15.1914  -44.1336 H   0  0  0  0  0  0  0  0  0  0  0  0
  -24.8967  -18.1150  -43.3051 H   0  0  0  0  0  0  0  0  0  0  0  0
  -23.5667  -17.0096  -42.8196 H   0  0  0  0  0  0  0  0  0  0  0  0
  -23.7264  -18.6339  -45.1306 H   0  0  0  0  0  0  0  0  0  0  0  0
  -22.4802  -17.4051  -44.7257 H   0  0  0  0  0  0  0  0  0  0  0  0
  -23.6941  -15.6878  -45.8928 H   0  0  0  0  0  0  0  0  0  0  0  0
  -23.5543  -17.1114  -46.9793 H   0  0  0  0  0  0  0  0  0  0  0  0
  -25.5746  -14.6781  -42.2087 H   0  0  0  0  0  0  0  0  0  0  0  0
  -25.4315  -16.3955  -41.7021 H   0  0  0  0  0  0  0  0  0  0  0  0
  -27.6821  -13.7098  -42.2829 H   0  0  0  0  0  0  0  0  0  0  0  0
  -31.1762  -16.1256  -42.2534 H   0  0  0  0  0  0  0  0  0  0  0  0
  -27.9977  -19.3386  -42.7627 H   0  0  0  0  0  0  0  0  0  0  0  0
  -31.0785  -20.9146  -41.5839 H   0  0  0  0  0  0  0  0  0  0  0  0
  -26.7428  -21.9190  -44.7915 H   0  0  0  0  0  0  0  0  0  0  0  0
  -27.4078  -20.2684  -44.5463 H   0  0  0  0  0  0  0  0  0  0  0  0
  -25.3477  -20.3687  -39.7816 H   0  0  0  0  0  0  0  0  0  0  0  0
  -24.5243  -20.8527  -44.6231 H   0  0  0  0  0  0  0  0  0  0  0  0
  -23.0604  -20.1055  -40.6746 H   0  0  0  0  0  0  0  0  0  0  0  0
  -28.4149  -25.5489  -44.4030 H   0  0  0  0  0  0  0  0  0  0  0  0
  -28.3577  -29.4255  -45.1229 H   0  0  0  0  0  0  0  0  0  0  0  0
  -27.1799  -28.1973  -44.5477 H   0  0  0  0  0  0  0  0  0  0  0  0
  -28.1471  -27.8894  -46.0298 H   0  0  0  0  0  0  0  0  0  0  0  0
  1 17  2  0  0  0  0
  1 37  1  0  0  0  0
  2 23  1  0  0  0  0
  2 25  1  0  0  0  0
  3 38  1  0  0  0  0
  4  3  1  0  0  0  0
  4 30  1  0  0  0  0
  5  4  2  0  0  0  0
  5 39  1  0  0  0  0
  6  7  2  0  0  0  0
  6 28  1  0  0  0  0
  7 27  1  0  0  0  0
  7 40  1  0  0  0  0
  8 29  1  0  0  0  0
  8 41  1  0  0  0  0
  9 14  1  0  0  0  0
  9 42  1  0  0  0  0
  9 43  1  0  0  0  0
 10  9  1  0  0  0  0
 10 44  1  0  0  0  0
 10 45  1  0  0  0  0
 11 10  1  0  0  0  0
 11 12  1  0  0  0  0
 11 46  1  0  0  0  0
 12 13  1  0  0  0  0
 12 47  1  0  0  0  0
 12 48  1  0  0  0  0
 13 14  1  0  0  0  0
 13 49  1  0  0  0  0
 13 50  1  0  0  0  0
 14 51  1  0  0  0  0
 14 52  1  0  0  0  0
 15 11  1  0  0  0  0
 15 53  1  0  0  0  0
 15 54  1  0  0  0  0
 16 15  1  0  0  0  0
 16 17  1  0  0  0  0
 17 55  1  0  0  0  0
 18  1  1  0  0  0  0
 18 56  1  0  0  0  0
 19 18  2  0  0  0  0
 19 20  1  0  0  0  0
 20 16  2  0  0  0  0
 21 19  1  0  0  0  0
 21 22  2  0  0  0  0
 23 21  1  0  0  0  0
 23 57  1  0  0  0  0
 24  2  2  0  0  0  0
 24  5  1  0  0  0  0
 24 26  1  0  0  0  0
 25  3  2  0  0  0  0
 25 58  1  0  0  0  0
 26  6  1  0  0  0  0
 26 59  1  0  0  0  0
 26 60  1  0  0  0  0
 27 29  2  0  0  0  0
 27 61  1  0  0  0  0
 28  8  2  0  0  0  0
 28 62  1  0  0  0  0
 29 63  1  0  0  0  0
 30 31  2  0  0  0  0
 30 32  1  0  0  0  0
 32 33  1  0  0  0  0
 32 64  1  0  0  0  0
 33 34  2  0  0  0  0
 33 35  2  0  0  0  0
 33 36  1  0  0  0  0
 36 65  1  0  0  0  0
 36 66  1  0  0  0  0
 36 67  1  0  0  0  0
M  END
