4p44_ligand
 OpenBabel08222323353D

 62 62  0  0  1  0  0  0  0  0999 V2000
   13.0140   46.9490   39.5930 O   0  5  0  0  0  0  0  0  0  0  0  0
   13.8250   47.5910   40.3140 C   0  0  0  0  0  0  0  0  0  0  0  0
   13.7790   48.8150   40.5060 O   0  0  0  0  0  0  0  0  0  0  0  0
   15.0110   46.8430   40.9840 C   0  0  0  0  0  0  0  0  0  0  0  0
   14.7270   45.3140   41.0270 C   0  0  0  0  0  0  0  0  0  0  0  0
   16.0000   44.5500   41.5270 C   0  0  1  0  0  0  0  0  0  0  0  0
   17.0980   44.6940   40.4660 C   0  0  0  0  0  0  0  0  0  0  0  0
   16.9630   43.9040   39.4840 O   0  5  0  0  0  0  0  0  0  0  0  0
   17.9970   45.5410   40.6190 O   0  0  0  0  0  0  0  0  0  0  0  0
   16.4760   45.0240   42.8800 N   0  0  0  0  0  0  0  0  0  0  0  0
   17.6570   44.1320   43.7070 P   0  0  2  0  0  0  0  0  0  0  0  0
   18.1930   43.0000   42.7010 O   0  0  0  0  0  1  0  0  0  0  0  0
   17.0420   43.5550   44.8630 O   0  0  0  0  0  0  0  0  0  0  0  0
   18.8260   45.0970   44.2050 O   0  0  0  0  0  0  0  0  0  0  0  0
   19.1770   46.1340   43.3690 C   0  0  0  0  0  0  0  0  0  0  0  0
   20.1410   47.0980   44.0560 C   0  0  1  0  0  0  0  0  0  0  0  0
   19.9100   47.3190   45.5490 C   0  0  0  0  0  0  0  0  0  0  0  0
   20.3010   46.4680   46.3720 O   0  5  0  0  0  0  0  0  0  0  0  0
   19.3790   48.3650   45.8420 O   0  0  0  0  0  0  0  0  0  0  0  0
   21.3460   46.3920   43.8040 N   0  0  0  0  0  0  0  0  0  0  0  0
   22.2870   46.1150   44.6510 C   0  0  0  0  0  0  0  0  0  0  0  0
   22.3210   46.3540   45.8620 O   0  0  0  0  0  0  0  0  0  0  0  0
   23.2290   45.2920   43.8630 C   0  0  2  0  0  0  0  0  0  0  0  0
   23.8640   44.0470   44.5290 C   0  0  2  0  0  0  0  0  0  0  0  0
   24.1690   44.2150   46.0430 C   0  0  0  0  0  0  0  0  0  0  0  0
   25.0880   43.5870   43.7200 C   0  0  0  0  0  0  0  0  0  0  0  0
   24.7320   43.5000   42.2390 C   0  0  0  0  0  0  0  0  0  0  0  0
   23.9240   46.1440   42.8520 N   0  0  0  0  0  0  0  0  0  0  0  0
   24.5150   47.3540   42.8330 C   0  0  0  0  0  0  0  0  0  0  0  0
   24.9320   48.0260   43.7870 O   0  0  0  0  0  0  0  0  0  0  0  0
   24.7430   47.6820   41.4840 C   0  0  0  0  0  0  0  0  0  0  0  0
   24.4630   46.6390   40.5850 C   0  0  0  0  0  0  0  0  0  0  0  0
   24.6040   46.7770   39.2140 C   0  0  0  0  0  0  0  0  0  0  0  0
   25.0210   48.0150   38.7400 C   0  0  0  0  0  0  0  0  0  0  0  0
   25.1320   48.1290   37.4650 F   0  0  0  0  0  0  0  0  0  0  0  0
   25.2930   49.0860   39.6130 C   0  0  0  0  0  0  0  0  0  0  0  0
   25.1440   48.9360   41.0040 C   0  0  0  0  0  0  0  0  0  0  0  0
   15.1432   47.2169   42.0100 H   0  0  0  0  0  0  0  0  0  0  0  0
   15.9289   47.0258   40.4060 H   0  0  0  0  0  0  0  0  0  0  0  0
   14.4637   44.9632   40.0182 H   0  0  0  0  0  0  0  0  0  0  0  0
   13.8904   45.1174   41.7136 H   0  0  0  0  0  0  0  0  0  0  0  0
   15.7446   43.4842   41.6204 H   0  0  0  0  0  0  0  0  0  0  0  0
   16.0978   45.8567   43.2844 H   0  0  0  0  0  0  0  0  0  0  0  0
   18.2691   46.6823   43.0774 H   0  0  0  0  0  0  0  0  0  0  0  0
   19.6611   45.7224   42.4711 H   0  0  0  0  0  0  0  0  0  0  0  0
   20.1337   48.0790   43.5585 H   0  0  0  0  0  0  0  0  0  0  0  0
   21.4847   46.0720   42.8668 H   0  0  0  0  0  0  0  0  0  0  0  0
   22.5271   44.7642   43.2007 H   0  0  0  0  0  0  0  0  0  0  0  0
   23.1176   43.2419   44.4599 H   0  0  0  0  0  0  0  0  0  0  0  0
   24.6157   43.2881   46.4321 H   0  0  0  0  0  0  0  0  0  0  0  0
   23.2349   44.4270   46.5839 H   0  0  0  0  0  0  0  0  0  0  0  0
   24.8723   45.0487   46.1851 H   0  0  0  0  0  0  0  0  0  0  0  0
   25.4090   42.5970   44.0762 H   0  0  0  0  0  0  0  0  0  0  0  0
   25.9068   44.3089   43.8560 H   0  0  0  0  0  0  0  0  0  0  0  0
   25.6131   43.1704   41.6689 H   0  0  0  0  0  0  0  0  0  0  0  0
   24.4121   44.4893   41.8800 H   0  0  0  0  0  0  0  0  0  0  0  0
   23.9143   42.7775   42.1003 H   0  0  0  0  0  0  0  0  0  0  0  0
   23.9598   45.7007   41.9564 H   0  0  0  0  0  0  0  0  0  0  0  0
   24.1231   45.6885   40.9802 H   0  0  0  0  0  0  0  0  0  0  0  0
   24.3978   45.9540   38.5393 H   0  0  0  0  0  0  0  0  0  0  0  0
   25.6209   50.0368   39.2087 H   0  0  0  0  0  0  0  0  0  0  0  0
   25.3328   49.7615   41.6807 H   0  0  0  0  0  0  0  0  0  0  0  0
  1  2  1  0  0  0  0
  2  3  2  0  0  0  0
  2  4  1  0  0  0  0
  4  5  1  0  0  0  0
  4 38  1  0  0  0  0
  4 39  1  0  0  0  0
  5  6  1  0  0  0  0
  5 40  1  0  0  0  0
  5 41  1  0  0  0  0
  6  7  1  0  0  0  0
  6 10  1  0  0  0  0
  6 42  1  1  0  0  0
  7  8  1  0  0  0  0
  7  9  2  0  0  0  0
 10 11  1  0  0  0  0
 10 43  1  0  0  0  0
 11 12  1  6  0  0  0
 11 13  2  0  0  0  0
 11 14  1  0  0  0  0
 14 15  1  0  0  0  0
 15 16  1  0  0  0  0
 15 44  1  0  0  0  0
 15 45  1  0  0  0  0
 16 17  1  0  0  0  0
 16 20  1  0  0  0  0
 16 46  1  6  0  0  0
 17 18  1  0  0  0  0
 17 19  2  0  0  0  0
 20 21  1  0  0  0  0
 20 47  1  0  0  0  0
 21 22  2  0  0  0  0
 21 23  1  0  0  0  0
 23 24  1  0  0  0  0
 23 28  1  0  0  0  0
 23 48  1  6  0  0  0
 24 25  1  0  0  0  0
 24 26  1  0  0  0  0
 24 49  1  6  0  0  0
 25 50  1  0  0  0  0
 25 51  1  0  0  0  0
 25 52  1  0  0  0  0
 26 27  1  0  0  0  0
 26 53  1  0  0  0  0
 26 54  1  0  0  0  0
 27 55  1  0  0  0  0
 27 56  1  0  0  0  0
 27 57  1  0  0  0  0
 28 29  1  0  0  0  0
 28 58  1  0  0  0  0
 29 30  2  0  0  0  0
 29 31  1  0  0  0  0
 31 32  2  0  0  0  0
 31 37  1  0  0  0  0
 32 33  1  0  0  0  0
 32 59  1  0  0  0  0
 33 34  2  0  0  0  0
 33 60  1  0  0  0  0
 34 35  1  0  0  0  0
 34 36  1  0  0  0  0
 36 37  2  0  0  0  0
 36 61  1  0  0  0  0
 37 62  1  0  0  0  0
M  CHG  3   1  -1   8  -1  18  -1
M  END
