4p4b_ligand
 OpenBabel08222323353D

 47 46  0  0  1  0  0  0  0  0999 V2000
   27.2440   44.2430   39.9390 O   0  5  0  0  0  0  0  0  0  0  0  0
   26.1180   43.7230   39.8240 C   0  0  0  0  0  0  0  0  0  0  0  0
   25.5180   43.6430   38.7310 O   0  0  0  0  0  0  0  0  0  0  0  0
   25.4110   43.2430   41.1440 C   0  0  1  0  0  0  0  0  0  0  0  0
   26.3710   42.7420   42.1530 N   0  3  0  0  0  0  0  0  0  0  0  0
   24.5160   44.3910   41.7550 C   0  0  0  0  0  0  0  0  0  0  0  0
   23.7950   44.0640   43.0880 C   0  0  0  0  0  0  0  0  0  0  0  0
   22.9030   45.3050   43.4650 C   0  0  0  0  0  0  0  0  0  0  0  0
   23.4200   46.4160   43.5600 O   0  0  0  0  0  0  0  0  0  0  0  0
   21.5880   45.1210   43.6130 N   0  0  0  0  0  0  0  0  0  0  0  0
   20.6110   46.2580   43.8650 C   0  0  2  0  0  0  0  0  0  0  0  0
   20.4570   46.4980   45.4000 C   0  0  0  0  0  0  0  0  0  0  0  0
   20.9710   45.6750   46.1750 O   0  5  0  0  0  0  0  0  0  0  0  0
   19.7680   47.4540   45.7470 O   0  0  0  0  0  0  0  0  0  0  0  0
   19.2580   45.8520   43.3070 C   0  0  0  0  0  0  0  0  0  0  0  0
   18.7120   44.8590   44.1440 O   0  0  0  0  0  0  0  0  0  0  0  0
   17.5810   43.9320   43.5750 P   0  0  2  0  0  0  0  0  0  0  0  0
   16.8550   43.2940   44.7740 O   0  0  0  0  0  1  0  0  0  0  0  0
   18.1450   42.9590   42.5820 O   0  0  0  0  0  0  0  0  0  0  0  0
   16.5250   44.8880   42.7850 N   0  0  0  0  0  0  0  0  0  0  0  0
   15.9950   44.3870   41.4810 C   0  0  2  0  0  0  0  0  0  0  0  0
   17.0080   44.5280   40.3390 C   0  0  0  0  0  0  0  0  0  0  0  0
   16.8470   43.7610   39.3350 O   0  5  0  0  0  0  0  0  0  0  0  0
   17.8930   45.4120   40.4210 O   0  0  0  0  0  0  0  0  0  0  0  0
   14.6660   45.1570   41.0010 C   0  0  0  0  0  0  0  0  0  0  0  0
   14.9290   46.6750   40.9190 C   0  0  0  0  0  0  0  0  0  0  0  0
   13.8060   47.4570   40.1870 C   0  0  0  0  0  0  0  0  0  0  0  0
   12.9940   46.8230   39.4360 O   0  5  0  0  0  0  0  0  0  0  0  0
   13.7460   48.6970   40.4330 O   0  0  0  0  0  0  0  0  0  0  0  0
   24.7480   42.4072   40.8759 H   0  0  0  0  0  0  0  0  0  0  0  0
   25.8698   42.4479   42.9766 H   0  0  0  0  0  0  0  0  0  0  0  0
   27.0162   43.4770   42.3969 H   0  0  0  0  0  0  0  0  0  0  0  0
   26.8807   41.9599   41.7727 H   0  0  0  0  0  0  0  0  0  0  0  0
   23.7465   44.6475   41.0120 H   0  0  0  0  0  0  0  0  0  0  0  0
   25.1628   45.2635   41.9292 H   0  0  0  0  0  0  0  0  0  0  0  0
   24.5361   43.8807   43.8799 H   0  0  0  0  0  0  0  0  0  0  0  0
   23.1632   43.1722   42.9635 H   0  0  0  0  0  0  0  0  0  0  0  0
   21.2288   44.1895   43.5552 H   0  0  0  0  0  0  0  0  0  0  0  0
   20.9670   47.1761   43.3748 H   0  0  0  0  0  0  0  0  0  0  0  0
   19.3802   45.4538   42.2889 H   0  0  0  0  0  0  0  0  0  0  0  0
   18.5894   46.7251   43.2814 H   0  0  0  0  0  0  0  0  0  0  0  0
   16.2434   45.7725   43.1569 H   0  0  0  0  0  0  0  0  0  0  0  0
   15.7558   43.3213   41.6113 H   0  0  0  0  0  0  0  0  0  0  0  0
   13.8562   44.9671   41.7208 H   0  0  0  0  0  0  0  0  0  0  0  0
   14.3694   44.7857   40.0090 H   0  0  0  0  0  0  0  0  0  0  0  0
   15.8743   46.8364   40.3801 H   0  0  0  0  0  0  0  0  0  0  0  0
   15.0182   47.0691   41.9421 H   0  0  0  0  0  0  0  0  0  0  0  0
  1  2  1  0  0  0  0
  2  3  2  0  0  0  0
  2  4  1  0  0  0  0
  4  5  1  0  0  0  0
  4  6  1  0  0  0  0
  4 30  1  6  0  0  0
  5 31  1  0  0  0  0
  5 32  1  0  0  0  0
  5 33  1  0  0  0  0
  6  7  1  0  0  0  0
  6 34  1  0  0  0  0
  6 35  1  0  0  0  0
  7  8  1  0  0  0  0
  7 36  1  0  0  0  0
  7 37  1  0  0  0  0
  8  9  2  0  0  0  0
  8 10  1  0  0  0  0
 10 11  1  0  0  0  0
 10 38  1  0  0  0  0
 11 12  1  0  0  0  0
 11 15  1  0  0  0  0
 11 39  1  6  0  0  0
 12 13  1  0  0  0  0
 12 14  2  0  0  0  0
 15 16  1  0  0  0  0
 15 40  1  0  0  0  0
 15 41  1  0  0  0  0
 16 17  1  0  0  0  0
 17 18  1  1  0  0  0
 17 19  2  0  0  0  0
 17 20  1  0  0  0  0
 20 21  1  0  0  0  0
 20 42  1  0  0  0  0
 21 22  1  0  0  0  0
 21 25  1  0  0  0  0
 21 43  1  1  0  0  0
 22 23  1  0  0  0  0
 22 24  2  0  0  0  0
 25 26  1  0  0  0  0
 25 44  1  0  0  0  0
 25 45  1  0  0  0  0
 26 27  1  0  0  0  0
 26 46  1  0  0  0  0
 26 47  1  0  0  0  0
 27 28  1  0  0  0  0
 27 29  2  0  0  0  0
M  CHG  5   1  -1   5   1  13  -1  23  -1  28  -1
M  END
