4p4j_ligand
 OpenBabel08222323353D

 43 43  0  0  1  0  0  0  0  0999 V2000
   25.2190   47.4710   44.4140 C   0  0  0  0  0  0  0  0  0  0  0  0
   26.2170   48.0970   43.6410 C   0  0  0  0  0  0  0  0  0  0  0  0
   25.8860   48.6900   42.4100 C   0  0  0  0  0  0  0  0  0  0  0  0
   24.5700   48.6750   41.9040 C   0  0  0  0  0  0  0  0  0  0  0  0
   23.5680   48.0360   42.6660 C   0  0  0  0  0  0  0  0  0  0  0  0
   23.9010   47.4540   43.8980 C   0  0  0  0  0  0  0  0  0  0  0  0
   22.8240   46.7820   44.7450 C   0  0  0  0  0  0  0  0  0  0  0  0
   22.9870   46.6770   45.9570 O   0  0  0  0  0  0  0  0  0  0  0  0
   21.7650   46.3130   44.0900 N   0  0  0  0  0  0  0  0  0  0  0  0
   20.7180   45.5240   44.7790 C   0  0  1  0  0  0  0  0  0  0  0  0
   20.3110   46.0150   46.1990 C   0  0  0  0  0  0  0  0  0  0  0  0
   19.9090   47.1960   46.2730 O   0  5  0  0  0  0  0  0  0  0  0  0
   20.3760   45.1850   47.1360 O   0  0  0  0  0  0  0  0  0  0  0  0
   19.4400   45.4840   43.9070 C   0  0  0  0  0  0  0  0  0  0  0  0
   18.5480   44.6440   44.6880 O   0  0  0  0  0  0  0  0  0  0  0  0
   17.4970   43.7480   44.0060 P   0  0  2  0  0  0  0  0  0  0  0  0
   16.8320   42.9850   45.0900 O   0  0  0  0  0  1  0  0  0  0  0  0
   18.1710   42.7830   43.0030 O   0  0  0  0  0  0  0  0  0  0  0  0
   16.4080   44.7490   43.2450 N   0  0  0  0  0  0  0  0  0  0  0  0
   15.9790   44.2150   41.9010 C   0  0  2  0  0  0  0  0  0  0  0  0
   17.0550   44.3760   40.8000 C   0  0  0  0  0  0  0  0  0  0  0  0
   17.9230   45.2520   40.9630 O   0  5  0  0  0  0  0  0  0  0  0  0
   16.9210   43.6010   39.8050 O   0  0  0  0  0  0  0  0  0  0  0  0
   14.6780   44.9410   41.3890 C   0  0  0  0  0  0  0  0  0  0  0  0
   14.8940   46.4710   41.3640 C   0  0  0  0  0  0  0  0  0  0  0  0
   13.7560   47.2530   40.6590 C   0  0  0  0  0  0  0  0  0  0  0  0
   13.7030   48.4930   40.8800 O   0  5  0  0  0  0  0  0  0  0  0  0
   13.0030   46.6540   39.8510 O   0  0  0  0  0  0  0  0  0  0  0  0
   25.4525   47.0181   45.3708 H   0  0  0  0  0  0  0  0  0  0  0  0
   27.2410   48.1214   43.9958 H   0  0  0  0  0  0  0  0  0  0  0  0
   26.6659   49.1732   41.8326 H   0  0  0  0  0  0  0  0  0  0  0  0
   24.3338   49.1419   40.9547 H   0  0  0  0  0  0  0  0  0  0  0  0
   22.5480   47.9954   42.3014 H   0  0  0  0  0  0  0  0  0  0  0  0
   21.6741   46.4973   43.1113 H   0  0  0  0  0  0  0  0  0  0  0  0
   21.1044   44.4995   44.8846 H   0  0  0  0  0  0  0  0  0  0  0  0
   19.6449   45.0377   42.9227 H   0  0  0  0  0  0  0  0  0  0  0  0
   19.0197   46.4916   43.7724 H   0  0  0  0  0  0  0  0  0  0  0  0
   16.0753   45.6078   43.6345 H   0  0  0  0  0  0  0  0  0  0  0  0
   15.7639   43.1431   42.0220 H   0  0  0  0  0  0  0  0  0  0  0  0
   13.8409   44.7034   42.0619 H   0  0  0  0  0  0  0  0  0  0  0  0
   14.4427   44.5909   40.3731 H   0  0  0  0  0  0  0  0  0  0  0  0
   15.8364   46.6795   40.8363 H   0  0  0  0  0  0  0  0  0  0  0  0
   14.9683   46.8276   42.4019 H   0  0  0  0  0  0  0  0  0  0  0  0
  1  2  2  0  0  0  0
  1  6  1  0  0  0  0
  1 29  1  0  0  0  0
  2  3  1  0  0  0  0
  2 30  1  0  0  0  0
  3  4  2  0  0  0  0
  3 31  1  0  0  0  0
  4  5  1  0  0  0  0
  4 32  1  0  0  0  0
  5  6  2  0  0  0  0
  5 33  1  0  0  0  0
  6  7  1  0  0  0  0
  7  8  2  0  0  0  0
  7  9  1  0  0  0  0
  9 10  1  0  0  0  0
  9 34  1  0  0  0  0
 10 11  1  0  0  0  0
 10 14  1  0  0  0  0
 10 35  1  1  0  0  0
 11 12  1  0  0  0  0
 11 13  2  0  0  0  0
 14 15  1  0  0  0  0
 14 36  1  0  0  0  0
 14 37  1  0  0  0  0
 15 16  1  0  0  0  0
 16 17  1  1  0  0  0
 16 18  2  0  0  0  0
 16 19  1  0  0  0  0
 19 20  1  0  0  0  0
 19 38  1  0  0  0  0
 20 21  1  0  0  0  0
 20 24  1  0  0  0  0
 20 39  1  1  0  0  0
 21 22  1  0  0  0  0
 21 23  2  0  0  0  0
 24 25  1  0  0  0  0
 24 40  1  0  0  0  0
 24 41  1  0  0  0  0
 25 26  1  0  0  0  0
 25 42  1  0  0  0  0
 25 43  1  0  0  0  0
 26 27  1  0  0  0  0
 26 28  2  0  0  0  0
M  CHG  3  12  -1  22  -1  27  -1
M  END
