4p4t_ligand
 OpenBabel08222323353D

 41 43  0  0  1  0  0  0  0  0999 V2000
    9.2350   11.4800   85.5980 P   0  0  0  0  0  0  0  0  0  0  0  0
    7.8290   11.3000   85.0650 O   0  0  0  0  0  1  0  0  0  0  0  0
   10.0470   10.2110   85.5730 O   0  0  0  0  0  1  0  0  0  0  0  0
    9.9370   12.7180   85.1150 O   0  0  0  0  0  0  0  0  0  0  0  0
    8.9130   11.8400   87.1290 O   0  0  0  0  0  0  0  0  0  0  0  0
    9.6450   11.2670   88.4530 P   0  0  2  0  0  0  0  0  0  0  0  0
   11.0600   11.7850   88.4190 O   0  0  0  0  0  1  0  0  0  0  0  0
    9.3990    9.7980   88.6870 O   0  0  0  0  0  0  0  0  0  0  0  0
    8.7390   12.0980   89.4960 O   0  0  0  0  0  0  0  0  0  0  0  0
    8.6430   13.5260   89.4820 C   0  0  0  0  0  0  0  0  0  0  0  0
    8.6840   14.0060   90.9320 C   0  0  1  0  0  0  0  0  0  0  0  0
    7.4520   13.7020   91.6000 O   0  0  0  0  0  0  0  0  0  0  0  0
    9.7990   13.3440   91.7390 C   0  0  1  0  0  0  0  0  0  0  0  0
   10.4590   14.3980   92.4270 O   0  0  0  0  0  0  0  0  0  0  0  0
    9.1150   12.4200   92.7330 C   0  0  1  0  0  0  0  0  0  0  0  0
    9.7270   12.4410   94.0400 O   0  0  0  0  0  0  0  0  0  0  0  0
    7.7080   12.9960   92.8100 C   0  0  2  0  0  0  0  0  0  0  0  0
    6.6650   11.9700   93.0190 N   0  0  0  0  0  0  0  0  0  0  0  0
    6.4020   10.8900   92.2470 C   0  0  0  0  0  0  0  0  0  0  0  0
    5.3580   10.1740   92.7500 N   0  0  0  0  0  0  0  0  0  0  0  0
    4.9410   10.8120   93.8690 C   0  0  0  0  0  0  0  0  0  0  0  0
    3.8850   10.6060   94.8960 C   0  0  0  0  0  0  0  0  0  0  0  0
    3.1050    9.6270   94.8240 O   0  0  0  0  0  0  0  0  0  0  0  0
    3.7900   11.5020   95.8970 N   0  0  0  0  0  0  0  0  0  0  0  0
    4.6140   12.5660   96.0020 C   0  0  2  0  0  3  0  0  0  0  0  0
    4.4500   13.4130   97.0430 N   0  0  0  0  0  0  0  0  0  0  0  0
    5.5990   12.8250   95.0980 N   0  0  0  0  0  0  0  0  0  0  0  0
    5.8020   11.9970   94.0370 C   0  0  0  0  0  0  0  0  0  0  0  0
    7.6975   13.8338   89.0116 H   0  0  0  0  0  0  0  0  0  0  0  0
    9.4875   13.9533   88.9215 H   0  0  0  0  0  0  0  0  0  0  0  0
    8.8405   15.0948   90.9306 H   0  0  0  0  0  0  0  0  0  0  0  0
   10.4982   12.7882   91.0970 H   0  0  0  0  0  0  0  0  0  0  0  0
   11.1673   14.0394   92.9487 H   0  0  0  0  0  0  0  0  0  0  0  0
    9.1031   11.3867   92.3560 H   0  0  0  0  0  0  0  0  0  0  0  0
    9.2601   11.8476   94.6167 H   0  0  0  0  0  0  0  0  0  0  0  0
    7.6673   13.7005   93.6538 H   0  0  0  0  0  0  0  0  0  0  0  0
    6.9517   10.6283   91.3441 H   0  0  0  0  0  0  0  0  0  0  0  0
    3.0807   11.3739   96.5902 H   0  0  0  0  0  0  0  0  0  0  0  0
    5.0672   14.2315   97.1432 H   0  0  0  0  0  0  0  0  0  0  0  0
    3.7078   13.2398   97.7359 H   0  0  0  0  0  0  0  0  0  0  0  0
    6.1962   13.6555   95.2183 H   0  0  0  0  0  0  0  0  0  0  0  0
  1  2  1  0  0  0  0
  1  3  1  0  0  0  0
  1  4  2  0  0  0  0
  1  5  1  0  0  0  0
  5  6  1  0  0  0  0
  6  7  1  1  0  0  0
  6  8  2  0  0  0  0
  6  9  1  0  0  0  0
  9 10  1  0  0  0  0
 10 11  1  0  0  0  0
 10 29  1  0  0  0  0
 10 30  1  0  0  0  0
 11 12  1  0  0  0  0
 11 13  1  0  0  0  0
 11 31  1  1  0  0  0
 12 17  1  0  0  0  0
 13 14  1  0  0  0  0
 13 15  1  0  0  0  0
 13 32  1  6  0  0  0
 14 33  1  0  0  0  0
 15 16  1  0  0  0  0
 15 17  1  0  0  0  0
 15 34  1  6  0  0  0
 16 35  1  0  0  0  0
 17 18  1  0  0  0  0
 17 36  1  1  0  0  0
 18 19  1  0  0  0  0
 18 28  1  0  0  0  0
 19 20  2  0  0  0  0
 19 37  1  0  0  0  0
 20 21  1  0  0  0  0
 21 22  1  0  0  0  0
 21 28  2  0  0  0  0
 22 23  2  0  0  0  0
 22 24  1  0  0  0  0
 24 25  1  0  0  0  0
 24 38  1  0  0  0  0
 25 26  1  6  0  0  0
 25 27  1  0  0  0  0
 26 39  1  0  0  0  0
 26 40  1  0  0  0  0
 27 28  1  0  0  0  0
 27 41  1  0  0  0  0
M  END
