4p6e_ligand
 OpenBabel08222323353D

 58 61  0  0  1  0  0  0  0  0999 V2000
   25.4220   37.3760   13.7720 C   0  0  0  0  0  0  0  0  0  0  0  0
   24.9280   35.9080   15.5740 C   0  0  0  0  0  0  0  0  0  0  0  0
   20.6190   30.8600   14.1810 C   0  0  0  0  0  0  0  0  0  0  0  0
   21.4930   30.0520   14.8700 C   0  0  0  0  0  0  0  0  0  0  0  0
   23.2890   31.4450   14.1650 C   0  0  0  0  0  0  0  0  0  0  0  0
   21.0640   31.9630   13.4910 C   0  0  0  0  0  0  0  0  0  0  0  0
   24.4680   35.1810   13.2720 C   0  0  0  0  0  0  0  0  0  0  0  0
   20.0660   32.7980   12.7800 C   0  0  0  0  0  0  0  0  0  0  0  0
   21.9480   33.9720   11.7940 C   0  0  0  0  0  0  0  0  0  0  0  0
   26.4080   26.9270   17.2950 C   0  0  0  0  0  0  0  0  0  0  0  0
   25.3600   27.2290   19.3350 C   0  0  0  0  0  0  0  0  0  0  0  0
   22.9650   33.4280   12.7610 C   0  0  2  0  0  0  0  0  0  0  0  0
   25.8720   38.0630   16.0040 C   0  0  0  0  0  0  0  0  0  0  0  0
   25.8820   38.3230   14.6540 C   0  0  0  0  0  0  0  0  0  0  0  0
   25.3890   36.8570   16.4540 C   0  0  0  0  0  0  0  0  0  0  0  0
   24.9480   36.1760   14.2350 C   0  0  0  0  0  0  0  0  0  0  0  0
   22.4130   32.2560   13.4830 C   0  0  0  0  0  0  0  0  0  0  0  0
   22.8330   30.3490   14.8580 C   0  0  0  0  0  0  0  0  0  0  0  0
   23.4650   29.0490   16.8060 C   0  0  0  0  0  0  0  0  0  0  0  0
   20.6250   34.1580   12.4820 C   0  0  0  0  0  0  0  0  0  0  0  0
   25.7410   28.1220   16.6540 C   0  0  0  0  0  0  0  0  0  0  0  0
   24.6820   28.4960   18.8560 C   0  0  0  0  0  0  0  0  0  0  0  0
   27.3880   26.0560   19.2710 C   0  0  0  0  0  0  0  0  0  0  0  0
   24.5740   28.4970   17.4090 N   0  0  0  0  0  0  0  0  0  0  0  0
   26.6620   27.1850   18.7000 N   0  3  1  0  0  0  0  0  0  0  0  0
   23.7460   29.5440   15.5470 N   0  0  0  0  0  0  0  0  0  0  0  0
   23.3790   34.4670   13.6660 N   0  0  0  0  0  0  0  0  0  0  0  0
   25.0400   35.0250   12.1940 O   0  0  0  0  0  0  0  0  0  0  0  0
   22.3670   29.0620   17.3530 O   0  0  0  0  0  0  0  0  0  0  0  0
   25.4338   37.5780   12.7071 H   0  0  0  0  0  0  0  0  0  0  0  0
   24.5530   34.9583   15.9380 H   0  0  0  0  0  0  0  0  0  0  0  0
   19.5612   30.6233   14.1819 H   0  0  0  0  0  0  0  0  0  0  0  0
   21.1276   29.1901   15.4165 H   0  0  0  0  0  0  0  0  0  0  0  0
   24.3489   31.6720   14.1561 H   0  0  0  0  0  0  0  0  0  0  0  0
   19.1713   32.9061   13.4106 H   0  0  0  0  0  0  0  0  0  0  0  0
   19.7915   32.3060   11.8353 H   0  0  0  0  0  0  0  0  0  0  0  0
   21.8271   33.2665   10.9588 H   0  0  0  0  0  0  0  0  0  0  0  0
   22.2960   34.9414   11.4078 H   0  0  0  0  0  0  0  0  0  0  0  0
   27.3617   26.7268   16.7848 H   0  0  0  0  0  0  0  0  0  0  0  0
   25.7504   26.0503   17.2003 H   0  0  0  0  0  0  0  0  0  0  0  0
   24.7671   26.3492   19.0445 H   0  0  0  0  0  0  0  0  0  0  0  0
   25.4728   27.2502   20.4290 H   0  0  0  0  0  0  0  0  0  0  0  0
   23.8459   33.0958   12.1921 H   0  0  0  0  0  0  0  0  0  0  0  0
   26.2412   38.8014   16.7065 H   0  0  0  0  0  0  0  0  0  0  0  0
   26.2521   39.2733   14.2865 H   0  0  0  0  0  0  0  0  0  0  0  0
   25.3717   36.6520   17.5183 H   0  0  0  0  0  0  0  0  0  0  0  0
   20.7660   34.7177   13.4184 H   0  0  0  0  0  0  0  0  0  0  0  0
   19.9363   34.7096   11.8252 H   0  0  0  0  0  0  0  0  0  0  0  0
   25.4434   27.8657   15.6265 H   0  0  0  0  0  0  0  0  0  0  0  0
   26.4471   28.9651   16.6318 H   0  0  0  0  0  0  0  0  0  0  0  0
   25.2736   29.3665   19.1757 H   0  0  0  0  0  0  0  0  0  0  0  0
   23.6749   28.5560   19.2944 H   0  0  0  0  0  0  0  0  0  0  0  0
   28.3851   25.9909   18.8110 H   0  0  0  0  0  0  0  0  0  0  0  0
   26.8329   25.1266   19.0760 H   0  0  0  0  0  0  0  0  0  0  0  0
   27.4936   26.1992   20.3565 H   0  0  0  0  0  0  0  0  0  0  0  0
   27.1703   28.0457   18.8298 H   0  0  0  0  0  0  0  0  0  0  0  0
   24.6219   29.3217   15.1187 H   0  0  0  0  0  0  0  0  0  0  0  0
   22.9000   34.6514   14.5242 H   0  0  0  0  0  0  0  0  0  0  0  0
  1 14  2  0  0  0  0
  1 30  1  0  0  0  0
  2 15  1  0  0  0  0
  2 31  1  0  0  0  0
  3  6  1  0  0  0  0
  3 32  1  0  0  0  0
  4  3  2  0  0  0  0
  4 33  1  0  0  0  0
  5 17  1  0  0  0  0
  5 34  1  0  0  0  0
  6  8  1  0  0  0  0
  7 16  1  0  0  0  0
  7 28  2  0  0  0  0
  8 20  1  0  0  0  0
  8 35  1  0  0  0  0
  8 36  1  0  0  0  0
  9 20  1  0  0  0  0
  9 37  1  0  0  0  0
  9 38  1  0  0  0  0
 10 25  1  0  0  0  0
 10 39  1  0  0  0  0
 10 40  1  0  0  0  0
 11 22  1  0  0  0  0
 11 41  1  0  0  0  0
 11 42  1  0  0  0  0
 12  9  1  0  0  0  0
 12 27  1  0  0  0  0
 12 43  1  6  0  0  0
 13 44  1  0  0  0  0
 14 13  1  0  0  0  0
 14 45  1  0  0  0  0
 15 13  2  0  0  0  0
 15 46  1  0  0  0  0
 16  1  1  0  0  0  0
 16  2  2  0  0  0  0
 17  6  2  0  0  0  0
 17 12  1  0  0  0  0
 18  4  1  0  0  0  0
 18  5  2  0  0  0  0
 19 26  1  0  0  0  0
 19 29  2  0  0  0  0
 20 47  1  0  0  0  0
 20 48  1  0  0  0  0
 21 10  1  0  0  0  0
 21 24  1  0  0  0  0
 21 49  1  0  0  0  0
 21 50  1  0  0  0  0
 22 24  1  0  0  0  0
 22 51  1  0  0  0  0
 22 52  1  0  0  0  0
 23 53  1  0  0  0  0
 23 54  1  0  0  0  0
 23 55  1  0  0  0  0
 24 19  1  0  0  0  0
 25 11  1  0  0  0  0
 25 23  1  0  0  0  0
 25 56  1  1  0  0  0
 26 18  1  0  0  0  0
 26 57  1  0  0  0  0
 27  7  1  0  0  0  0
 27 58  1  0  0  0  0
M  CHG  1  25   1
M  END
