4p6g_ligand
 OpenBabel08222323353D

 65 69  0  0  1  0  0  0  0  0999 V2000
   30.1910  -21.1030   16.7500 C   0  0  0  0  0  0  0  0  0  0  0  0
   27.7010  -15.9610   19.6570 C   0  0  0  0  0  0  0  0  0  0  0  0
   26.5050  -16.1290   17.1230 C   0  0  0  0  0  0  0  0  0  0  0  0
   26.3400  -14.9740   17.9230 C   0  0  0  0  0  0  0  0  0  0  0  0
   30.0150  -23.7790   17.5740 C   0  0  0  0  0  0  0  0  0  0  0  0
   31.2650  -23.2180   17.3410 C   0  0  0  0  0  0  0  0  0  0  0  0
   27.8780  -17.0950   18.8660 C   0  0  0  0  0  0  0  0  0  0  0  0
   27.3000  -17.1700   17.5900 C   0  0  0  0  0  0  0  0  0  0  0  0
   28.9150  -21.6610   16.9940 C   0  0  0  0  0  0  0  0  0  0  0  0
   31.3480  -21.8750   16.9530 C   0  0  0  0  0  0  0  0  0  0  0  0
   28.8430  -23.0150   17.3720 C   0  0  0  0  0  0  0  0  0  0  0  0
   26.9510  -14.9000   19.1750 C   0  0  0  0  0  0  0  0  0  0  0  0
   27.4410  -18.4130   16.7530 C   0  0  0  0  0  0  0  0  0  0  0  0
   24.4970  -20.1800   16.9690 C   0  0  0  0  0  0  0  0  0  0  0  0
   32.7550  -20.1040   15.9580 C   0  0  0  0  0  0  0  0  0  0  0  0
   33.6130  -21.5290   17.7850 C   0  0  0  0  0  0  0  0  0  0  0  0
   34.1970  -19.9170   15.4970 C   0  0  0  0  0  0  0  0  0  0  0  0
   35.0370  -21.3640   17.2350 C   0  0  0  0  0  0  0  0  0  0  0  0
   37.5800  -19.7320   17.1060 C   0  0  0  0  0  0  0  0  0  0  0  0
   36.8520  -18.4590   15.6210 C   0  0  0  0  0  0  0  0  0  0  0  0
   26.5350  -23.0690   16.8910 C   0  0  0  0  0  0  0  0  0  0  0  0
   27.6560  -20.8490   16.7880 C   0  0  1  0  0  0  0  0  0  0  0  0
   36.5290  -19.9090   15.9990 C   0  0  0  0  0  0  0  0  0  0  0  0
   26.3720  -21.6030   17.2150 C   0  0  1  0  0  0  0  0  0  0  0  0
   22.5490  -18.7980   16.4450 C   0  0  0  0  0  0  0  0  0  0  0  0
   32.6300  -21.3460   16.7050 N   0  0  0  0  0  0  0  0  0  0  0  0
   35.1780  -20.0420   16.5910 N   0  3  1  0  0  0  0  0  0  0  0  0
   27.6300  -19.5640   17.4680 N   0  0  0  0  0  0  0  0  0  0  0  0
   23.5890  -19.7180   16.0510 N   0  0  0  0  0  0  0  0  0  0  0  0
   27.3780  -18.3900   15.5280 O   0  0  0  0  0  0  0  0  0  0  0  0
   24.5260  -19.8690   18.1570 O   0  0  0  0  0  0  0  0  0  0  0  0
   27.6470  -23.6430   17.6270 O   0  0  0  0  0  0  0  0  0  0  0  0
   37.8830  -18.3850   16.6570 O   0  0  0  0  0  0  0  0  0  0  0  0
   25.3340  -21.0920   16.3690 O   0  0  0  0  0  0  0  0  0  0  0  0
   26.7780  -13.8130   19.9480 F   0  0  0  0  0  0  0  0  0  0  0  0
   30.2771  -20.0786   16.4060 H   0  0  0  0  0  0  0  0  0  0  0  0
   28.1474  -15.9093   20.6435 H   0  0  0  0  0  0  0  0  0  0  0  0
   26.0176  -16.2017   16.1575 H   0  0  0  0  0  0  0  0  0  0  0  0
   25.7390  -14.1467   17.5633 H   0  0  0  0  0  0  0  0  0  0  0  0
   29.9385  -24.8062   17.9119 H   0  0  0  0  0  0  0  0  0  0  0  0
   32.1640  -23.8123   17.4581 H   0  0  0  0  0  0  0  0  0  0  0  0
   28.4666  -17.9251   19.2396 H   0  0  0  0  0  0  0  0  0  0  0  0
   32.0932  -20.1385   15.0801 H   0  0  0  0  0  0  0  0  0  0  0  0
   32.4659  -19.2605   16.6022 H   0  0  0  0  0  0  0  0  0  0  0  0
   33.4363  -20.7779   18.5690 H   0  0  0  0  0  0  0  0  0  0  0  0
   33.5020  -22.5370   18.2112 H   0  0  0  0  0  0  0  0  0  0  0  0
   34.2948  -18.9155   15.0526 H   0  0  0  0  0  0  0  0  0  0  0  0
   34.4225  -20.6792   14.7366 H   0  0  0  0  0  0  0  0  0  0  0  0
   35.2357  -22.1531   16.4949 H   0  0  0  0  0  0  0  0  0  0  0  0
   35.7587  -21.4459   18.0611 H   0  0  0  0  0  0  0  0  0  0  0  0
   38.4289  -20.4270   17.0262 H   0  0  0  0  0  0  0  0  0  0  0  0
   37.1638  -19.7767   18.1232 H   0  0  0  0  0  0  0  0  0  0  0  0
   36.0151  -17.7624   15.7768 H   0  0  0  0  0  0  0  0  0  0  0  0
   37.2406  -18.3425   14.5986 H   0  0  0  0  0  0  0  0  0  0  0  0
   26.7212  -23.1807   15.8127 H   0  0  0  0  0  0  0  0  0  0  0  0
   25.6114  -23.6021   17.1608 H   0  0  0  0  0  0  0  0  0  0  0  0
   27.5897  -20.6525   15.7077 H   0  0  0  0  0  0  0  0  0  0  0  0
   36.7241  -20.6769   15.2359 H   0  0  0  0  0  0  0  0  0  0  0  0
   26.1471  -21.4520   18.2811 H   0  0  0  0  0  0  0  0  0  0  0  0
   21.9290  -18.5494   15.5710 H   0  0  0  0  0  0  0  0  0  0  0  0
   23.0039  -17.8798   16.8450 H   0  0  0  0  0  0  0  0  0  0  0  0
   21.9214  -19.2637   17.2192 H   0  0  0  0  0  0  0  0  0  0  0  0
   35.0284  -19.3159   17.2740 H   0  0  0  0  0  0  0  0  0  0  0  0
   27.7505  -19.5215   18.4598 H   0  0  0  0  0  0  0  0  0  0  0  0
   23.6480  -20.0213   15.0999 H   0  0  0  0  0  0  0  0  0  0  0  0
  1 10  1  0  0  0  0
  1 36  1  0  0  0  0
  2 12  1  0  0  0  0
  2 37  1  0  0  0  0
  3  4  1  0  0  0  0
  3 38  1  0  0  0  0
  4 12  2  0  0  0  0
  4 39  1  0  0  0  0
  5  6  1  0  0  0  0
  5 40  1  0  0  0  0
  6 41  1  0  0  0  0
  7  2  2  0  0  0  0
  7 42  1  0  0  0  0
  8  3  2  0  0  0  0
  8  7  1  0  0  0  0
  9  1  2  0  0  0  0
  9 11  1  0  0  0  0
 10  6  2  0  0  0  0
 10 26  1  0  0  0  0
 11  5  2  0  0  0  0
 12 35  1  0  0  0  0
 13  8  1  0  0  0  0
 13 30  2  0  0  0  0
 14 29  1  0  0  0  0
 14 31  2  0  0  0  0
 15 17  1  0  0  0  0
 15 43  1  0  0  0  0
 15 44  1  0  0  0  0
 16 18  1  0  0  0  0
 16 45  1  0  0  0  0
 16 46  1  0  0  0  0
 17 27  1  0  0  0  0
 17 47  1  0  0  0  0
 17 48  1  0  0  0  0
 18 27  1  0  0  0  0
 18 49  1  0  0  0  0
 18 50  1  0  0  0  0
 19 33  1  0  0  0  0
 19 51  1  0  0  0  0
 19 52  1  0  0  0  0
 20 33  1  0  0  0  0
 20 53  1  0  0  0  0
 20 54  1  0  0  0  0
 21 32  1  0  0  0  0
 21 55  1  0  0  0  0
 21 56  1  0  0  0  0
 22  9  1  0  0  0  0
 22 28  1  0  0  0  0
 22 57  1  6  0  0  0
 23 19  1  0  0  0  0
 23 20  1  0  0  0  0
 23 58  1  0  0  0  0
 24 21  1  0  0  0  0
 24 22  1  0  0  0  0
 24 34  1  0  0  0  0
 24 59  1  1  0  0  0
 25 60  1  0  0  0  0
 25 61  1  0  0  0  0
 25 62  1  0  0  0  0
 26 15  1  0  0  0  0
 26 16  1  0  0  0  0
 27 23  1  0  0  0  0
 27 63  1  1  0  0  0
 28 13  1  0  0  0  0
 28 64  1  0  0  0  0
 29 25  1  0  0  0  0
 29 65  1  0  0  0  0
 32 11  1  0  0  0  0
 34 14  1  0  0  0  0
M  CHG  1  27   1
M  END
