4p7m_ligand
 OpenBabel08222323353D

 36 38  0  0  0  0  0  0  0  0999 V2000
   -1.6580  -30.3430  -18.0600 C   0  0  0  0  0  0  0  0  0  0  0  0
   -2.4360  -30.7140  -19.1360 C   0  0  0  0  0  0  0  0  0  0  0  0
   -1.9120  -30.9650  -20.3370 O   0  0  0  0  0  0  0  0  0  0  0  0
   -3.7850  -30.8080  -18.9390 C   0  0  0  0  0  0  0  0  0  0  0  0
   -4.3230  -30.5350  -17.6760 C   0  0  0  0  0  0  0  0  0  0  0  0
   -3.5450  -30.1610  -16.5820 C   0  0  0  0  0  0  0  0  0  0  0  0
   -2.1910  -30.0760  -16.8000 C   0  0  0  0  0  0  0  0  0  0  0  0
   -1.3840  -29.7100  -15.8110 O   0  0  0  0  0  0  0  0  0  0  0  0
   -1.2530  -30.6730  -14.8870 C   0  0  0  0  0  0  0  0  0  0  0  0
   -2.1870  -30.7970  -13.8930 C   0  0  0  0  0  0  0  0  0  0  0  0
   -0.1710  -31.5240  -14.8690 C   0  0  0  0  0  0  0  0  0  0  0  0
   -0.0620  -32.4680  -13.8790 C   0  0  0  0  0  0  0  0  0  0  0  0
    1.0260  -33.3090  -13.8990 C   0  0  0  0  0  0  0  0  0  0  0  0
   -0.9910  -32.5800  -12.9310 N   0  0  0  0  0  0  0  0  0  0  0  0
   -2.0440  -31.7740  -12.9190 C   0  0  0  0  0  0  0  0  0  0  0  0
   -3.0120  -31.8320  -11.9390 C   0  0  0  0  0  0  0  0  0  0  0  0
   -4.3350  -31.9510  -12.2880 C   0  0  0  0  0  0  0  0  0  0  0  0
   -5.3170  -31.9800  -11.3310 C   0  0  0  0  0  0  0  0  0  0  0  0
   -4.9450  -31.8620  -10.0140 C   0  0  0  0  0  0  0  0  0  0  0  0
   -3.6230  -31.7210   -9.6510 C   0  0  0  0  0  0  0  0  0  0  0  0
   -2.6530  -31.6990  -10.6240 C   0  0  0  0  0  0  0  0  0  0  0  0
   -0.5866  -30.2552  -18.1997 H   0  0  0  0  0  0  0  0  0  0  0  0
   -2.6059  -31.2032  -20.9405 H   0  0  0  0  0  0  0  0  0  0  0  0
   -4.4359  -31.0929  -19.7577 H   0  0  0  0  0  0  0  0  0  0  0  0
   -5.3955  -30.6184  -17.5425 H   0  0  0  0  0  0  0  0  0  0  0  0
   -3.9833  -29.9491  -15.6135 H   0  0  0  0  0  0  0  0  0  0  0  0
   -3.0407  -30.1295  -13.8674 H   0  0  0  0  0  0  0  0  0  0  0  0
    0.5927  -31.4486  -15.6346 H   0  0  0  0  0  0  0  0  0  0  0  0
    0.9691  -34.0025  -13.0470 H   0  0  0  0  0  0  0  0  0  0  0  0
    1.9495  -32.7156  -13.8277 H   0  0  0  0  0  0  0  0  0  0  0  0
    1.0296  -33.8816  -14.8382 H   0  0  0  0  0  0  0  0  0  0  0  0
   -4.6070  -32.0230  -13.3349 H   0  0  0  0  0  0  0  0  0  0  0  0
   -6.3593  -32.0931  -11.6067 H   0  0  0  0  0  0  0  0  0  0  0  0
   -5.7075  -31.8802   -9.2438 H   0  0  0  0  0  0  0  0  0  0  0  0
   -3.3505  -31.6282   -8.6059 H   0  0  0  0  0  0  0  0  0  0  0  0
   -1.6106  -31.5772  -10.3526 H   0  0  0  0  0  0  0  0  0  0  0  0
  1  2  2  0  0  0  0
  1  7  1  0  0  0  0
  1 22  1  0  0  0  0
  2  3  1  0  0  0  0
  2  4  1  0  0  0  0
  3 23  1  0  0  0  0
  4  5  2  0  0  0  0
  4 24  1  0  0  0  0
  5  6  1  0  0  0  0
  5 25  1  0  0  0  0
  6  7  2  0  0  0  0
  6 26  1  0  0  0  0
  7  8  1  0  0  0  0
  8  9  1  0  0  0  0
  9 10  2  0  0  0  0
  9 11  1  0  0  0  0
 10 15  1  0  0  0  0
 10 27  1  0  0  0  0
 11 12  2  0  0  0  0
 11 28  1  0  0  0  0
 12 13  1  0  0  0  0
 12 14  1  0  0  0  0
 13 29  1  0  0  0  0
 13 30  1  0  0  0  0
 13 31  1  0  0  0  0
 14 15  2  0  0  0  0
 15 16  1  0  0  0  0
 16 17  2  0  0  0  0
 16 21  1  0  0  0  0
 17 18  1  0  0  0  0
 17 32  1  0  0  0  0
 18 19  2  0  0  0  0
 18 33  1  0  0  0  0
 19 20  1  0  0  0  0
 19 34  1  0  0  0  0
 20 21  2  0  0  0  0
 20 35  1  0  0  0  0
 21 36  1  0  0  0  0
M  END
