4pct_ligand
 OpenBabel08222323353D

 22 22  0  0  1  0  0  0  0  0999 V2000
   33.1810    6.9870   57.6240 C   0  0  0  0  0  0  0  0  0  0  0  0
   32.5850    6.5070   56.9430 C   0  0  0  0  0  0  0  0  0  0  0  0
   31.7110    5.8440   55.8920 C   0  0  2  0  0  0  0  0  0  0  0  0
   30.2850    6.1160   56.1850 N   0  3  0  0  0  0  0  0  0  0  0  0
   29.6350    4.7890   56.2470 C   0  0  1  0  0  0  0  0  0  0  0  0
   28.1630    4.7670   55.7720 C   0  0  0  0  0  0  0  0  0  0  0  0
   30.5170    3.9360   55.3640 C   0  0  1  0  0  0  0  0  0  0  0  0
   30.4200    4.3690   53.9940 O   0  0  0  0  0  0  0  0  0  0  0  0
   31.8400    4.2850   55.9550 C   0  0  1  0  0  0  0  0  0  0  0  0
   32.9110    3.6980   55.2110 O   0  0  0  0  0  0  0  0  0  0  0  0
   33.7954    7.4818   58.3260 H   0  0  0  0  0  0  0  0  0  0  0  0
   31.9852    6.2160   54.8938 H   0  0  0  0  0  0  0  0  0  0  0  0
   29.8753    6.6752   55.4532 H   0  0  0  0  0  0  0  0  0  0  0  0
   30.1916    6.5956   57.0666 H   0  0  0  0  0  0  0  0  0  0  0  0
   29.6608    4.4158   57.2814 H   0  0  0  0  0  0  0  0  0  0  0  0
   27.7666    3.7442   55.8539 H   0  0  0  0  0  0  0  0  0  0  0  0
   28.1108    5.0977   54.7242 H   0  0  0  0  0  0  0  0  0  0  0  0
   27.5648    5.4434   56.4002 H   0  0  0  0  0  0  0  0  0  0  0  0
   30.2894    2.8627   55.4426 H   0  0  0  0  0  0  0  0  0  0  0  0
   30.9784    3.8252   53.4509 H   0  0  0  0  0  0  0  0  0  0  0  0
   31.9225    3.9461   56.9982 H   0  0  0  0  0  0  0  0  0  0  0  0
   32.8170    2.7526   55.2150 H   0  0  0  0  0  0  0  0  0  0  0  0
  1  2  3  0  0  0  0
  1 11  1  0  0  0  0
  2  3  1  0  0  0  0
  3  4  1  0  0  0  0
  3  9  1  0  0  0  0
  3 12  1  6  0  0  0
  4  5  1  0  0  0  0
  4 13  1  0  0  0  0
  4 14  1  0  0  0  0
  5  6  1  0  0  0  0
  5  7  1  0  0  0  0
  5 15  1  1  0  0  0
  6 16  1  0  0  0  0
  6 17  1  0  0  0  0
  6 18  1  0  0  0  0
  7  8  1  0  0  0  0
  7  9  1  0  0  0  0
  7 19  1  1  0  0  0
  8 20  1  0  0  0  0
  9 10  1  0  0  0  0
  9 21  1  1  0  0  0
 10 22  1  0  0  0  0
M  CHG  1   4   1
M  END
