4pd5_ligand
 OpenBabel08222323353D

 29 30  0  0  1  0  0  0  0  0999 V2000
   -9.1450   53.9420    0.2910 O   0  0  0  0  0  0  0  0  0  0  0  0
  -10.3000   54.7890    0.1210 C   0  0  0  0  0  0  0  0  0  0  0  0
  -10.5970   54.9010   -1.3680 C   0  0  1  0  0  0  0  0  0  0  0  0
   -9.4560   55.4780   -2.0700 O   0  0  0  0  0  0  0  0  0  0  0  0
   -9.3240   54.8490   -3.3380 C   0  0  1  0  0  0  0  0  0  0  0  0
   -7.9960   54.2200   -3.4490 N   0  0  0  0  0  0  0  0  0  0  0  0
   -7.2510   54.0030   -2.3220 C   0  0  0  0  0  0  0  0  0  0  0  0
   -6.0420   53.4360   -2.4180 C   0  0  0  0  0  0  0  0  0  0  0  0
   -5.5330   53.0650   -3.6960 C   0  0  0  0  0  0  0  0  0  0  0  0
   -6.2630   53.2820   -4.7940 N   0  0  0  0  0  0  0  0  0  0  0  0
   -7.4850   53.8570   -4.6990 C   0  0  0  0  0  0  0  0  0  0  0  0
   -8.1540   54.0510   -5.7250 O   0  0  0  0  0  0  0  0  0  0  0  0
   -4.3280   52.5000   -3.7960 N   0  0  0  0  0  0  0  0  0  0  0  0
  -10.4520   53.8150   -3.4330 C   0  0  0  0  0  0  0  0  0  0  0  0
  -10.0480   52.6940   -4.0460 F   0  0  0  0  0  0  0  0  0  0  0  0
  -11.5090   54.3470   -4.0730 F   0  0  0  0  0  0  0  0  0  0  0  0
  -10.8010   53.5410   -1.9810 C   0  0  2  0  0  0  0  0  0  0  0  0
  -12.1540   53.1300   -1.8600 O   0  0  0  0  0  0  0  0  0  0  0  0
   -9.3279   53.0827   -0.0704 H   0  0  0  0  0  0  0  0  0  0  0  0
  -10.0933   55.7870    0.5349 H   0  0  0  0  0  0  0  0  0  0  0  0
  -11.1638   54.3483    0.6402 H   0  0  0  0  0  0  0  0  0  0  0  0
  -11.4922   55.5232   -1.5147 H   0  0  0  0  0  0  0  0  0  0  0  0
   -9.4359   55.5927   -4.1407 H   0  0  0  0  0  0  0  0  0  0  0  0
   -7.6414   54.2914   -1.3472 H   0  0  0  0  0  0  0  0  0  0  0  0
   -5.4493   53.2589   -1.5218 H   0  0  0  0  0  0  0  0  0  0  0  0
   -5.9051   53.0185   -5.6898 H   0  0  0  0  0  0  0  0  0  0  0  0
   -3.7777   52.3365   -2.9675 H   0  0  0  0  0  0  0  0  0  0  0  0
  -10.1369   52.7863   -1.5344 H   0  0  0  0  0  0  0  0  0  0  0  0
  -12.3527   52.9637   -0.9460 H   0  0  0  0  0  0  0  0  0  0  0  0
  1  2  1  0  0  0  0
  1 19  1  0  0  0  0
  2  3  1  0  0  0  0
  2 20  1  0  0  0  0
  2 21  1  0  0  0  0
  3  4  1  0  0  0  0
  3 17  1  0  0  0  0
  3 22  1  6  0  0  0
  4  5  1  0  0  0  0
  5  6  1  0  0  0  0
  5 14  1  0  0  0  0
  5 23  1  6  0  0  0
  6  7  1  0  0  0  0
  6 11  1  0  0  0  0
  7  8  2  0  0  0  0
  7 24  1  0  0  0  0
  8  9  1  0  0  0  0
  8 25  1  0  0  0  0
  9 10  1  0  0  0  0
  9 13  2  0  0  0  0
 10 11  1  0  0  0  0
 10 26  1  0  0  0  0
 11 12  2  0  0  0  0
 13 27  1  0  0  0  0
 14 15  1  0  0  0  0
 14 16  1  0  0  0  0
 14 17  1  0  0  0  0
 17 18  1  0  0  0  0
 17 28  1  1  0  0  0
 18 29  1  0  0  0  0
M  END
