4pd6_ligand
 OpenBabel08222323353D

 29 30  0  0  1  0  0  0  0  0999 V2000
   51.3240  -20.2550   -8.9720 N   0  0  0  0  0  0  0  0  0  0  0  0
   50.6500  -20.5480  -10.1420 C   0  0  0  0  0  0  0  0  0  0  0  0
   49.5860  -21.4020   -9.9980 N   0  0  0  0  0  0  0  0  0  0  0  0
   49.1360  -21.9800   -8.8280 C   0  0  0  0  0  0  0  0  0  0  0  0
   49.8840  -21.6290   -7.6610 C   0  0  0  0  0  0  0  0  0  0  0  0
   50.9270  -20.7990   -7.7710 C   0  0  0  0  0  0  0  0  0  0  0  0
   50.9660  -20.0930  -11.2260 O   0  0  0  0  0  0  0  0  0  0  0  0
   48.1610  -22.7280   -8.8620 O   0  0  0  0  0  0  0  0  0  0  0  0
   52.4890  -19.3420   -9.0550 C   0  0  1  0  0  0  0  0  0  0  0  0
   52.0690  -17.8900   -9.2610 C   0  0  1  0  0  0  0  0  0  0  0  0
   52.0480  -17.3790   -7.8250 C   0  0  1  0  0  0  0  0  0  0  0  0
   53.2150  -18.1170   -7.1930 C   0  0  2  0  0  0  0  0  0  0  0  0
   53.0810  -17.2340  -10.0080 O   0  0  0  0  0  0  0  0  0  0  0  0
   52.1570  -15.9710   -7.7290 O   0  0  0  0  0  0  0  0  0  0  0  0
   53.2100  -19.4170   -7.8410 O   0  0  0  0  0  0  0  0  0  0  0  0
   53.1510  -18.2980   -5.6940 C   0  0  0  0  0  0  0  0  0  0  0  0
   51.9010  -18.8360   -5.2900 O   0  0  0  0  0  0  0  0  0  0  0  0
   49.0818  -21.6305  -10.8308 H   0  0  0  0  0  0  0  0  0  0  0  0
   49.6063  -22.0347   -6.6893 H   0  0  0  0  0  0  0  0  0  0  0  0
   51.4861  -20.5425   -6.8724 H   0  0  0  0  0  0  0  0  0  0  0  0
   53.1310  -19.6548   -9.8916 H   0  0  0  0  0  0  0  0  0  0  0  0
   51.0905  -17.7941   -9.7542 H   0  0  0  0  0  0  0  0  0  0  0  0
   51.1087  -17.6770   -7.3362 H   0  0  0  0  0  0  0  0  0  0  0  0
   54.1452  -17.5791   -7.4282 H   0  0  0  0  0  0  0  0  0  0  0  0
   52.9120  -16.2991  -10.0153 H   0  0  0  0  0  0  0  0  0  0  0  0
   52.1934  -15.7190   -6.8137 H   0  0  0  0  0  0  0  0  0  0  0  0
   53.2935  -17.3210   -5.2091 H   0  0  0  0  0  0  0  0  0  0  0  0
   53.9531  -18.9829   -5.3816 H   0  0  0  0  0  0  0  0  0  0  0  0
   51.2040  -18.2466   -5.5530 H   0  0  0  0  0  0  0  0  0  0  0  0
  1  2  1  0  0  0  0
  1  6  1  0  0  0  0
  1  9  1  0  0  0  0
  2  3  1  0  0  0  0
  2  7  2  0  0  0  0
  3  4  1  0  0  0  0
  3 18  1  0  0  0  0
  4  5  1  0  0  0  0
  4  8  2  0  0  0  0
  5  6  2  0  0  0  0
  5 19  1  0  0  0  0
  6 20  1  0  0  0  0
  9 10  1  0  0  0  0
  9 15  1  0  0  0  0
  9 21  1  6  0  0  0
 10 11  1  0  0  0  0
 10 13  1  0  0  0  0
 10 22  1  6  0  0  0
 11 12  1  0  0  0  0
 11 14  1  0  0  0  0
 11 23  1  1  0  0  0
 12 15  1  0  0  0  0
 12 16  1  0  0  0  0
 12 24  1  6  0  0  0
 13 25  1  0  0  0  0
 14 26  1  0  0  0  0
 16 17  1  0  0  0  0
 16 27  1  0  0  0  0
 16 28  1  0  0  0  0
 17 29  1  0  0  0  0
M  END
