4pd7_ligand
 OpenBabel08222323353D

 28 29  0  0  1  0  0  0  0  0999 V2000
   51.2010  -20.3080   -8.6090 N   0  0  0  0  0  0  0  0  0  0  0  0
   50.5480  -20.6020   -9.7900 C   0  0  0  0  0  0  0  0  0  0  0  0
   50.8870  -20.0590  -10.8270 O   0  0  0  0  0  0  0  0  0  0  0  0
   49.5090  -21.5030   -9.8040 N   0  0  0  0  0  0  0  0  0  0  0  0
   49.1220  -22.1200   -8.6310 C   0  0  0  0  0  0  0  0  0  0  0  0
   49.8150  -21.8030   -7.4100 C   0  0  0  0  0  0  0  0  0  0  0  0
   50.8220  -20.9180   -7.4270 C   0  0  0  0  0  0  0  0  0  0  0  0
   52.3250  -19.3270   -8.5990 C   0  0  1  0  0  0  0  0  0  0  0  0
   51.8630  -17.8760   -8.6040 C   0  0  2  0  0  0  0  0  0  0  0  0
   52.7350  -17.1250   -9.4230 O   0  0  0  0  0  0  0  0  0  0  0  0
   51.9000  -17.4870   -7.1380 C   0  0  2  0  0  0  0  0  0  0  0  0
   52.2240  -16.1140   -6.9690 O   0  0  0  0  0  0  0  0  0  0  0  0
   52.9880  -18.3750   -6.5550 C   0  0  2  0  0  0  0  0  0  0  0  0
   53.1590  -19.4960   -7.4640 O   0  0  0  0  0  0  0  0  0  0  0  0
   52.9060  -18.6560   -5.0680 C   0  0  0  0  0  0  0  0  0  0  0  0
   51.6440  -19.0700   -4.5610 O   0  0  0  0  0  0  0  0  0  0  0  0
   48.3027  -22.8375   -8.6297 H   0  0  0  0  0  0  0  0  0  0  0  0
   49.5225  -22.2802   -6.4758 H   0  0  0  0  0  0  0  0  0  0  0  0
   51.3456  -20.6776   -6.5029 H   0  0  0  0  0  0  0  0  0  0  0  0
   52.9235  -19.5024   -9.5051 H   0  0  0  0  0  0  0  0  0  0  0  0
   50.8380  -17.7860   -8.9928 H   0  0  0  0  0  0  0  0  0  0  0  0
   53.6184  -17.1814   -9.0783 H   0  0  0  0  0  0  0  0  0  0  0  0
   50.9313  -17.6919   -6.6588 H   0  0  0  0  0  0  0  0  0  0  0  0
   52.2385  -15.9050   -6.0425 H   0  0  0  0  0  0  0  0  0  0  0  0
   53.9169  -17.7931   -6.6474 H   0  0  0  0  0  0  0  0  0  0  0  0
   53.1905  -17.7343   -4.5393 H   0  0  0  0  0  0  0  0  0  0  0  0
   53.6327  -19.4494   -4.8390 H   0  0  0  0  0  0  0  0  0  0  0  0
   50.9985  -18.3939   -4.7308 H   0  0  0  0  0  0  0  0  0  0  0  0
  1  2  1  0  0  0  0
  1  7  1  0  0  0  0
  1  8  1  0  0  0  0
  2  3  2  0  0  0  0
  2  4  1  0  0  0  0
  4  5  2  0  0  0  0
  5  6  1  0  0  0  0
  5 17  1  0  0  0  0
  6  7  2  0  0  0  0
  6 18  1  0  0  0  0
  7 19  1  0  0  0  0
  8  9  1  0  0  0  0
  8 14  1  0  0  0  0
  8 20  1  6  0  0  0
  9 10  1  0  0  0  0
  9 11  1  0  0  0  0
  9 21  1  6  0  0  0
 10 22  1  0  0  0  0
 11 12  1  0  0  0  0
 11 13  1  0  0  0  0
 11 23  1  1  0  0  0
 12 24  1  0  0  0  0
 13 14  1  0  0  0  0
 13 15  1  0  0  0  0
 13 25  1  6  0  0  0
 15 16  1  0  0  0  0
 15 26  1  0  0  0  0
 15 27  1  0  0  0  0
 16 28  1  0  0  0  0
M  END
