4pdk_ligand
 OpenBabel08222323353D

131133  0  0  1  0  0  0  0  0999 V2000
   15.2000   -9.8560   -6.1810 C   0  0  0  0  0  0  0  0  0  0  0  0
   16.5640   -7.0540   -4.5320 C   0  0  0  0  0  0  0  0  0  0  0  0
   18.2460   -5.1920   -4.8410 C   0  0  0  0  0  0  0  0  0  0  0  0
   18.8020   -2.7880   -4.2340 C   0  0  0  0  0  0  0  0  0  0  0  0
   20.6870   -4.3040   -0.5310 C   0  0  0  0  0  0  0  0  0  0  0  0
   20.2640   -4.6720    0.9050 C   0  0  0  0  0  0  0  0  0  0  0  0
   20.7790   -6.7990    2.2130 C   0  0  0  0  0  0  0  0  0  0  0  0
   21.8290   -7.7790    2.7320 C   0  0  0  0  0  0  0  0  0  0  0  0
   26.4690  -14.0620    6.6870 P   0  0  1  0  0  0  0  0  0  0  0  0
   26.5840  -13.9630    9.5790 P   0  0  2  0  0  0  0  0  0  0  0  0
   30.3040  -17.9600   12.5550 P   0  0  0  0  0  0  0  0  0  0  0  0
   20.2160  -18.5260   -5.9310 C   0  0  0  0  0  0  0  0  0  0  0  0
   19.0990  -17.4860   -5.8630 C   0  0  0  0  0  0  0  0  0  0  0  0
   19.6020  -16.0880   -6.2340 C   0  0  0  0  0  0  0  0  0  0  0  0
   18.5610  -14.9820   -5.9790 C   0  0  0  0  0  0  0  0  0  0  0  0
   19.1860  -13.5660   -6.1930 C   0  0  0  0  0  0  0  0  0  0  0  0
   18.1190  -12.4290   -6.1130 C   0  0  0  0  0  0  0  0  0  0  0  0
   18.7500  -11.0200   -6.4280 C   0  0  0  0  0  0  0  0  0  0  0  0
   17.7360   -9.8580   -6.1660 C   0  0  0  0  0  0  0  0  0  0  0  0
   16.3470  -10.1760   -6.8190 C   0  0  0  0  0  0  0  0  0  0  0  0
   15.2420   -9.2000   -4.8000 C   0  0  0  0  0  0  0  0  0  0  0  0
   15.2090   -7.6630   -4.9170 C   0  0  0  0  0  0  0  0  0  0  0  0
   16.7560   -5.5840   -4.9290 C   0  0  0  0  0  0  0  0  0  0  0  0
   18.5270   -3.7840   -5.3900 C   0  0  0  0  0  0  0  0  0  0  0  0
   19.7950   -3.3670   -3.2000 C   0  0  0  0  0  0  0  0  0  0  0  0
   20.9390   -3.4980   -3.4800 O   0  0  0  0  0  0  0  0  0  0  0  0
   19.2050   -3.8600   -1.5250 S   0  0  0  0  0  0  0  0  0  0  0  0
   21.2250   -5.6440    1.4370 N   0  0  0  0  0  0  0  0  0  0  0  0
   19.6340   -6.9810    2.4480 O   0  0  0  0  0  0  0  0  0  0  0  0
   21.4660   -9.2270    2.3650 C   0  0  0  0  0  0  0  0  0  0  0  0
   22.0020  -10.1110    3.4000 N   0  0  0  0  0  0  0  0  0  0  0  0
   23.4190  -10.4640    3.3180 C   0  0  0  0  0  0  0  0  0  0  0  0
   24.0730  -10.0400    2.4310 O   0  0  0  0  0  0  0  0  0  0  0  0
   24.0220  -11.3900    4.3850 C   0  0  2  0  0  0  0  0  0  0  0  0
   23.0240  -11.7220    5.2880 O   0  0  0  0  0  0  0  0  0  0  0  0
   25.1560  -10.7030    5.1620 C   0  0  0  0  0  0  0  0  0  0  0  0
   24.6740   -9.3670    5.7460 C   0  0  0  0  0  0  0  0  0  0  0  0
   26.4100  -10.4810    4.2930 C   0  0  0  0  0  0  0  0  0  0  0  0
   25.5360  -11.6550    6.2980 C   0  0  0  0  0  0  0  0  0  0  0  0
   25.9890  -12.8330    5.6910 O   0  0  0  0  0  0  0  0  0  0  0  0
   25.2690  -14.9250    7.0060 O   0  0  0  0  0  1  0  0  0  0  0  0
   27.5300  -14.8900    5.9990 O   0  0  0  0  0  0  0  0  0  0  0  0
   27.0590  -13.4140    8.0890 O   0  0  0  0  0  0  0  0  0  0  0  0
   25.5080  -15.0140    9.4080 O   0  0  0  0  0  1  0  0  0  0  0  0
   26.0440  -12.8140   10.4000 O   0  0  0  0  0  0  0  0  0  0  0  0
   27.8940  -14.6410   10.3530 O   0  0  0  0  0  0  0  0  0  0  0  0
   29.1420  -14.6370    9.6870 C   0  0  0  0  0  0  0  0  0  0  0  0
   30.2570  -15.0590   10.6560 C   0  0  1  0  0  0  0  0  0  0  0  0
   31.1210  -14.1150   10.7770 O   0  0  0  0  0  0  0  0  0  0  0  0
   30.9550  -13.5390   12.1690 C   0  0  2  0  0  0  0  0  0  0  0  0
   29.7070  -14.2720   12.7670 C   0  0  2  0  0  0  0  0  0  0  0  0
   29.8730  -14.5040   14.2620 O   0  0  0  0  0  0  0  0  0  0  0  0
   29.6620  -15.3620   12.1590 C   0  0  2  0  0  0  0  0  0  0  0  0
   30.5090  -16.3610   12.8610 O   0  0  0  0  0  0  0  0  0  0  0  0
   31.1910  -18.7670   13.4770 O   0  0  0  0  0  1  0  0  0  0  0  0
   30.6780  -18.2500   11.1220 O   0  0  0  0  0  1  0  0  0  0  0  0
   28.8630  -18.3410   12.7850 O   0  0  0  0  0  0  0  0  0  0  0  0
   30.7530  -12.2080   12.0950 N   0  0  0  0  0  0  0  0  0  0  0  0
   29.6310  -11.6170   11.7160 C   0  0  0  0  0  0  0  0  0  0  0  0
   29.7850  -10.3000   11.7560 N   0  0  0  0  0  0  0  0  0  0  0  0
   31.0380  -10.0390   12.1680 C   0  0  0  0  0  0  0  0  0  0  0  0
   31.7780   -8.8620   12.4030 C   0  0  0  0  0  0  0  0  0  0  0  0
   31.1620   -7.5570   12.1880 N   0  0  0  0  0  0  0  0  0  0  0  0
   33.0330   -8.9480   12.8190 N   0  0  0  0  0  0  0  0  0  0  0  0
   33.5950  -10.1390   13.0180 C   0  0  0  0  0  0  0  0  0  0  0  0
   32.9360  -11.2700   12.8060 N   0  0  0  0  0  0  0  0  0  0  0  0
   31.6580  -11.2490   12.3840 C   0  0  0  0  0  0  0  0  0  0  0  0
   14.2410  -10.0661   -6.6522 H   0  0  0  0  0  0  0  0  0  0  0  0
   17.3535   -7.6442   -5.0202 H   0  0  0  0  0  0  0  0  0  0  0  0
   16.6727   -7.1285   -3.4399 H   0  0  0  0  0  0  0  0  0  0  0  0
   18.8350   -5.9185   -5.4200 H   0  0  0  0  0  0  0  0  0  0  0  0
   18.5563   -5.2259   -3.7862 H   0  0  0  0  0  0  0  0  0  0  0  0
   17.8528   -2.5603   -3.7270 H   0  0  0  0  0  0  0  0  0  0  0  0
   19.2244   -1.8632   -4.6539 H   0  0  0  0  0  0  0  0  0  0  0  0
   21.1926   -5.1641   -0.9942 H   0  0  0  0  0  0  0  0  0  0  0  0
   21.3757   -3.4469   -0.5001 H   0  0  0  0  0  0  0  0  0  0  0  0
   19.2567   -5.1138    0.8937 H   0  0  0  0  0  0  0  0  0  0  0  0
   20.2616   -3.7697    1.5342 H   0  0  0  0  0  0  0  0  0  0  0  0
   21.8920   -7.6912    3.8267 H   0  0  0  0  0  0  0  0  0  0  0  0
   22.8037   -7.5296    2.2874 H   0  0  0  0  0  0  0  0  0  0  0  0
   19.8148  -19.5133   -5.6584 H   0  0  0  0  0  0  0  0  0  0  0  0
   21.0175  -18.2497   -5.2301 H   0  0  0  0  0  0  0  0  0  0  0  0
   20.6199  -18.5640   -6.9534 H   0  0  0  0  0  0  0  0  0  0  0  0
   18.6980  -17.4602   -4.8390 H   0  0  0  0  0  0  0  0  0  0  0  0
   18.3005  -17.7745   -6.5624 H   0  0  0  0  0  0  0  0  0  0  0  0
   19.8635  -16.0825   -7.3024 H   0  0  0  0  0  0  0  0  0  0  0  0
   20.4988  -15.8688   -5.6359 H   0  0  0  0  0  0  0  0  0  0  0  0
   18.1970  -15.0620   -4.9441 H   0  0  0  0  0  0  0  0  0  0  0  0
   17.7192  -15.1127   -6.6749 H   0  0  0  0  0  0  0  0  0  0  0  0
   19.6617  -13.5355   -7.1843 H   0  0  0  0  0  0  0  0  0  0  0  0
   19.9455  -13.3935   -5.4163 H   0  0  0  0  0  0  0  0  0  0  0  0
   17.6919  -12.4106   -5.0995 H   0  0  0  0  0  0  0  0  0  0  0  0
   17.3223  -12.6348   -6.8430 H   0  0  0  0  0  0  0  0  0  0  0  0
   19.0553  -10.9947   -7.4845 H   0  0  0  0  0  0  0  0  0  0  0  0
   19.6324  -10.8737   -5.7877 H   0  0  0  0  0  0  0  0  0  0  0  0
   18.1334   -8.9278   -6.5981 H   0  0  0  0  0  0  0  0  0  0  0  0
   17.6044   -9.7315   -5.0813 H   0  0  0  0  0  0  0  0  0  0  0  0
   16.3063  -10.6586   -7.7944 H   0  0  0  0  0  0  0  0  0  0  0  0
   16.1667   -9.5018   -4.2864 H   0  0  0  0  0  0  0  0  0  0  0  0
   14.3721   -9.5350   -4.2160 H   0  0  0  0  0  0  0  0  0  0  0  0
   14.9718   -7.3861   -5.9548 H   0  0  0  0  0  0  0  0  0  0  0  0
   14.4328   -7.2676   -4.2454 H   0  0  0  0  0  0  0  0  0  0  0  0
   16.1728   -4.9459   -4.2488 H   0  0  0  0  0  0  0  0  0  0  0  0
   16.4035   -5.4384   -5.9608 H   0  0  0  0  0  0  0  0  0  0  0  0
   17.6537   -3.4393   -5.9631 H   0  0  0  0  0  0  0  0  0  0  0  0
   19.4064   -3.8228   -6.0496 H   0  0  0  0  0  0  0  0  0  0  0  0
   22.2016   -5.5141    1.2658 H   0  0  0  0  0  0  0  0  0  0  0  0
   21.9062   -9.4854    1.3906 H   0  0  0  0  0  0  0  0  0  0  0  0
   20.3725   -9.3348    2.3135 H   0  0  0  0  0  0  0  0  0  0  0  0
   21.4217  -10.4606    4.1355 H   0  0  0  0  0  0  0  0  0  0  0  0
   24.4101  -12.2982    3.9007 H   0  0  0  0  0  0  0  0  0  0  0  0
   23.3809  -12.2955    5.9560 H   0  0  0  0  0  0  0  0  0  0  0  0
   25.4972   -8.8898    6.2979 H   0  0  0  0  0  0  0  0  0  0  0  0
   23.8311   -9.5482    6.4291 H   0  0  0  0  0  0  0  0  0  0  0  0
   24.3485   -8.7059    4.9293 H   0  0  0  0  0  0  0  0  0  0  0  0
   26.7455  -11.4440    3.8807 H   0  0  0  0  0  0  0  0  0  0  0  0
   27.2111  -10.0470    4.9093 H   0  0  0  0  0  0  0  0  0  0  0  0
   26.1681   -9.7937    3.4690 H   0  0  0  0  0  0  0  0  0  0  0  0
   24.6592  -11.8646    6.9283 H   0  0  0  0  0  0  0  0  0  0  0  0
   26.3332  -11.2134    6.9140 H   0  0  0  0  0  0  0  0  0  0  0  0
   29.3506  -13.6247    9.3106 H   0  0  0  0  0  0  0  0  0  0  0  0
   29.1068  -15.3419    8.8433 H   0  0  0  0  0  0  0  0  0  0  0  0
   30.7460  -15.9633   10.2647 H   0  0  0  0  0  0  0  0  0  0  0  0
   31.8467  -13.7399   12.7810 H   0  0  0  0  0  0  0  0  0  0  0  0
   28.7924  -13.6880   12.5868 H   0  0  0  0  0  0  0  0  0  0  0  0
   30.6428  -15.0393   14.4147 H   0  0  0  0  0  0  0  0  0  0  0  0
   28.6273  -15.7301   12.0972 H   0  0  0  0  0  0  0  0  0  0  0  0
   28.7200  -12.1333   11.4168 H   0  0  0  0  0  0  0  0  0  0  0  0
   31.7030   -6.6975   12.3598 H   0  0  0  0  0  0  0  0  0  0  0  0
   30.1861   -7.4952   11.8644 H   0  0  0  0  0  0  0  0  0  0  0  0
   34.6214  -10.1851   13.3635 H   0  0  0  0  0  0  0  0  0  0  0  0
  1 20  2  0  0  0  0
  1 68  1  0  0  0  0
  2 22  1  0  0  0  0
  2 69  1  0  0  0  0
  2 70  1  0  0  0  0
  3 23  1  0  0  0  0
  3 71  1  0  0  0  0
  3 72  1  0  0  0  0
  4 24  1  0  0  0  0
  4 73  1  0  0  0  0
  4 74  1  0  0  0  0
  5 27  1  0  0  0  0
  5 75  1  0  0  0  0
  5 76  1  0  0  0  0
  6  5  1  0  0  0  0
  6 77  1  0  0  0  0
  6 78  1  0  0  0  0
  7 28  1  0  0  0  0
  7 29  2  0  0  0  0
  8  7  1  0  0  0  0
  8 79  1  0  0  0  0
  8 80  1  0  0  0  0
  9 40  1  0  0  0  0
  9 41  1  1  0  0  0
  9 42  2  0  0  0  0
 10 43  1  0  0  0  0
 10 44  1  6  0  0  0
 10 45  2  0  0  0  0
 11 55  1  0  0  0  0
 11 56  1  0  0  0  0
 11 57  2  0  0  0  0
 12 81  1  0  0  0  0
 12 82  1  0  0  0  0
 12 83  1  0  0  0  0
 13 12  1  0  0  0  0
 13 84  1  0  0  0  0
 13 85  1  0  0  0  0
 14 13  1  0  0  0  0
 14 86  1  0  0  0  0
 14 87  1  0  0  0  0
 15 14  1  0  0  0  0
 15 88  1  0  0  0  0
 15 89  1  0  0  0  0
 16 15  1  0  0  0  0
 16 90  1  0  0  0  0
 16 91  1  0  0  0  0
 17 16  1  0  0  0  0
 17 92  1  0  0  0  0
 17 93  1  0  0  0  0
 18 17  1  0  0  0  0
 18 94  1  0  0  0  0
 18 95  1  0  0  0  0
 19 18  1  0  0  0  0
 19 96  1  0  0  0  0
 19 97  1  0  0  0  0
 20 19  1  0  0  0  0
 20 98  1  0  0  0  0
 21  1  1  0  0  0  0
 21 99  1  0  0  0  0
 21100  1  0  0  0  0
 22 21  1  0  0  0  0
 22101  1  0  0  0  0
 22102  1  0  0  0  0
 23  2  1  0  0  0  0
 23103  1  0  0  0  0
 23104  1  0  0  0  0
 24  3  1  0  0  0  0
 24105  1  0  0  0  0
 24106  1  0  0  0  0
 25  4  1  0  0  0  0
 25 26  2  0  0  0  0
 27 25  1  0  0  0  0
 28  6  1  0  0  0  0
 28107  1  0  0  0  0
 30  8  1  0  0  0  0
 30108  1  0  0  0  0
 30109  1  0  0  0  0
 31 30  1  0  0  0  0
 31110  1  0  0  0  0
 32 31  1  0  0  0  0
 32 33  2  0  0  0  0
 34 32  1  0  0  0  0
 34 35  1  0  0  0  0
 34111  1  6  0  0  0
 35112  1  0  0  0  0
 36 34  1  0  0  0  0
 36 37  1  0  0  0  0
 36 38  1  0  0  0  0
 37113  1  0  0  0  0
 37114  1  0  0  0  0
 37115  1  0  0  0  0
 38116  1  0  0  0  0
 38117  1  0  0  0  0
 38118  1  0  0  0  0
 39 36  1  0  0  0  0
 39119  1  0  0  0  0
 39120  1  0  0  0  0
 40 39  1  0  0  0  0
 43  9  1  0  0  0  0
 46 10  1  0  0  0  0
 47 46  1  0  0  0  0
 47121  1  0  0  0  0
 47122  1  0  0  0  0
 48 47  1  0  0  0  0
 48 49  1  0  0  0  0
 48123  1  6  0  0  0
 50 49  1  0  0  0  0
 50 58  1  0  0  0  0
 50124  1  1  0  0  0
 51 50  1  0  0  0  0
 51 52  1  0  0  0  0
 51125  1  6  0  0  0
 52126  1  0  0  0  0
 53 48  1  0  0  0  0
 53 51  1  0  0  0  0
 53 54  1  0  0  0  0
 53127  1  6  0  0  0
 54 11  1  0  0  0  0
 58 59  1  0  0  0  0
 58 67  1  0  0  0  0
 59 60  2  0  0  0  0
 59128  1  0  0  0  0
 60 61  1  0  0  0  0
 61 62  2  0  0  0  0
 61 67  1  0  0  0  0
 62 63  1  0  0  0  0
 62 64  1  0  0  0  0
 63129  1  0  0  0  0
 63130  1  0  0  0  0
 64 65  2  0  0  0  0
 65 66  1  0  0  0  0
 65131  1  0  0  0  0
 66 67  2  0  0  0  0
M  END
