4pgb_ligand
 OpenBabel08222323353D

135139  0  0  1  0  0  0  0  0999 V2000
  -12.9640   -2.7730   35.3080 N   0  3  0  0  0  0  0  0  0  0  0  0
  -14.2610   -2.0830   35.5370 C   0  0  2  0  0  0  0  0  0  0  0  0
  -14.1470   -0.6440   35.0510 C   0  0  0  0  0  0  0  0  0  0  0  0
  -13.7100    0.2410   35.7880 O   0  0  0  0  0  0  0  0  0  0  0  0
  -14.6330   -2.1360   37.0210 C   0  0  0  0  0  0  0  0  0  0  0  0
  -16.0600   -1.7660   37.3060 C   0  0  0  0  0  0  0  0  0  0  0  0
  -17.0490   -2.7420   37.3400 C   0  0  0  0  0  0  0  0  0  0  0  0
  -16.4170   -0.4470   37.5510 C   0  0  0  0  0  0  0  0  0  0  0  0
  -18.3660   -2.4090   37.6070 C   0  0  0  0  0  0  0  0  0  0  0  0
  -17.7330   -0.1070   37.8190 C   0  0  0  0  0  0  0  0  0  0  0  0
  -18.7090   -1.0890   37.8470 C   0  0  0  0  0  0  0  0  0  0  0  0
  -14.5360   -0.4250   33.7980 N   0  0  0  0  0  0  0  0  0  0  0  0
  -14.3950    0.8800   33.1610 C   0  0  2  0  0  0  0  0  0  0  0  0
  -15.2820    1.9240   33.8350 C   0  0  0  0  0  0  0  0  0  0  0  0
  -16.2790    1.5710   34.4660 O   0  0  0  0  0  0  0  0  0  0  0  0
  -14.7280    0.7860   31.6790 C   0  0  0  0  0  0  0  0  0  0  0  0
  -14.9220    3.2140   33.7090 N   0  0  0  0  0  0  0  0  0  0  0  0
  -15.7560    4.2470   34.3200 C   0  0  2  0  0  0  0  0  0  0  0  0
  -17.0980    4.3970   33.6050 C   0  0  0  0  0  0  0  0  0  0  0  0
  -17.1340    4.5290   32.3820 O   0  0  0  0  0  0  0  0  0  0  0  0
  -14.9140    5.5270   34.1710 C   0  0  0  0  0  0  0  0  0  0  0  0
  -13.5470    5.0770   33.7810 C   0  0  0  0  0  0  0  0  0  0  0  0
  -13.7440    3.7930   33.0430 C   0  0  0  0  0  0  0  0  0  0  0  0
  -18.1850    4.3520   34.3700 N   0  0  0  0  0  0  0  0  0  0  0  0
  -19.5250    4.6000   33.8440 C   0  0  0  0  0  0  0  0  0  0  0  0
  -19.9770    6.0020   34.2000 C   0  0  0  0  0  0  0  0  0  0  0  0
  -19.3390    6.6750   35.0100 O   0  0  0  0  0  0  0  0  0  0  0  0
  -21.0780    6.4400   33.5950 N   0  0  0  0  0  0  0  0  0  0  0  0
  -21.6370    7.7710   33.8430 C   0  0  2  0  0  0  0  0  0  0  0  0
  -20.5850    8.8740   33.7300 C   0  0  0  0  0  0  0  0  0  0  0  0
  -20.2450    9.5300   34.7180 O   0  0  0  0  0  0  0  0  0  0  0  0
  -22.3190    7.8240   35.2180 C   0  0  0  0  0  0  0  0  0  0  0  0
  -23.4670    6.8400   35.3450 C   0  0  0  0  0  0  0  0  0  0  0  0
  -23.6230    6.1850   36.3760 O   0  0  0  0  0  0  0  0  0  0  0  0
  -24.2780    6.7310   34.2990 N   0  0  0  0  0  0  0  0  0  0  0  0
  -20.0720    9.0600   32.5150 N   0  0  0  0  0  0  0  0  0  0  0  0
  -19.0670   10.0830   32.2380 C   0  0  2  0  0  0  0  0  0  0  0  0
  -19.7270   11.4670   32.2820 C   0  0  0  0  0  0  0  0  0  0  0  0
  -20.7590   11.6770   31.6450 O   0  0  0  0  0  0  0  0  0  0  0  0
  -18.4290    9.8440   30.8610 C   0  0  0  0  0  0  0  0  0  0  0  0
  -16.9350    9.8310   30.8790 C   0  0  0  0  0  0  0  0  0  0  0  0
  -16.1050   10.9090   30.9440 C   0  0  0  0  0  0  0  0  0  0  0  0
  -16.0880    8.6760   30.8180 C   0  0  0  0  0  0  0  0  0  0  0  0
  -14.7940   10.5000   30.9350 N   0  0  0  0  0  0  0  0  0  0  0  0
  -14.7560    9.1330   30.8590 C   0  0  0  0  0  0  0  0  0  0  0  0
  -16.3260    7.3010   30.7380 C   0  0  0  0  0  0  0  0  0  0  0  0
  -13.6680    8.2650   30.8190 C   0  0  0  0  0  0  0  0  0  0  0  0
  -15.2430    6.4400   30.6980 C   0  0  0  0  0  0  0  0  0  0  0  0
  -13.9310    6.9260   30.7400 C   0  0  0  0  0  0  0  0  0  0  0  0
  -19.1360   12.4190   33.0300 N   0  0  0  0  0  0  0  0  0  0  0  0
  -19.7700   13.7330   33.1020 C   0  0  2  0  0  0  0  0  0  0  0  0
  -19.6420   14.5140   31.8010 C   0  0  0  0  0  0  0  0  0  0  0  0
  -18.6090   14.4390   31.1370 O   0  0  0  0  0  0  0  0  0  0  0  0
  -19.0000   14.4300   34.2210 C   0  0  0  0  0  0  0  0  0  0  0  0
  -17.6550   13.8020   34.1960 C   0  0  0  0  0  0  0  0  0  0  0  0
  -17.8900   12.3700   33.8180 C   0  0  0  0  0  0  0  0  0  0  0  0
  -20.6910   15.2520   31.4500 N   0  0  0  0  0  0  0  0  0  0  0  0
  -20.7090   16.0350   30.2190 C   0  0  2  0  0  0  0  0  0  0  0  0
  -19.7760   17.2340   30.3290 C   0  0  0  0  0  0  0  0  0  0  0  0
  -19.6270   17.8150   31.4040 O   0  0  0  0  0  0  0  0  0  0  0  0
  -22.1240   16.4990   29.9110 C   0  0  0  0  0  0  0  0  0  0  0  0
  -19.1560   17.6000   29.2100 N   0  0  0  0  0  0  0  0  0  0  0  0
  -18.2180   18.7210   29.1750 C   0  0  2  0  0  0  0  0  0  0  0  0
  -18.9520   20.0540   29.3000 C   0  0  0  0  0  0  0  0  0  0  0  0
  -18.3740   21.0620   29.6990 O   0  5  0  0  0  0  0  0  0  0  0  0
  -17.4030   18.6990   27.8780 C   0  0  0  0  0  0  0  0  0  0  0  0
  -16.5450   17.4570   27.6170 C   0  0  0  0  0  0  0  0  0  0  0  0
  -15.9580   17.5110   26.2180 C   0  0  0  0  0  0  0  0  0  0  0  0
  -15.4380   17.3120   28.6500 C   0  0  0  0  0  0  0  0  0  0  0  0
  -20.1430   20.1580   29.0090 O   0  0  0  0  0  0  0  0  0  0  0  0
  -13.0300   -3.7269   35.6269 H   0  0  0  0  0  0  0  0  0  0  0  0
  -12.2359   -2.2979   35.8181 H   0  0  0  0  0  0  0  0  0  0  0  0
  -12.7468   -2.7621   34.3238 H   0  0  0  0  0  0  0  0  0  0  0  0
  -15.0462   -2.5928   34.9595 H   0  0  0  0  0  0  0  0  0  0  0  0
  -13.9794   -1.4395   37.5666 H   0  0  0  0  0  0  0  0  0  0  0  0
  -14.4620   -3.1601   37.3842 H   0  0  0  0  0  0  0  0  0  0  0  0
  -16.7858   -3.7772   37.1551 H   0  0  0  0  0  0  0  0  0  0  0  0
  -15.6572    0.3259   37.5324 H   0  0  0  0  0  0  0  0  0  0  0  0
  -19.1274   -3.1803   37.6282 H   0  0  0  0  0  0  0  0  0  0  0  0
  -17.9986    0.9271   38.0067 H   0  0  0  0  0  0  0  0  0  0  0  0
  -19.7393   -0.8250   38.0563 H   0  0  0  0  0  0  0  0  0  0  0  0
  -14.9374   -1.1780   33.2766 H   0  0  0  0  0  0  0  0  0  0  0  0
  -13.3476    1.2006   33.2623 H   0  0  0  0  0  0  0  0  0  0  0  0
  -14.6168    1.7770   31.2147 H   0  0  0  0  0  0  0  0  0  0  0  0
  -15.7645    0.4383   31.5574 H   0  0  0  0  0  0  0  0  0  0  0  0
  -14.0434    0.0749   31.1937 H   0  0  0  0  0  0  0  0  0  0  0  0
  -15.9363    4.0195   35.3810 H   0  0  0  0  0  0  0  0  0  0  0  0
  -14.8786    6.0743   35.1245 H   0  0  0  0  0  0  0  0  0  0  0  0
  -15.3396    6.1758   33.3914 H   0  0  0  0  0  0  0  0  0  0  0  0
  -12.9261    4.9153   34.6745 H   0  0  0  0  0  0  0  0  0  0  0  0
  -13.0673    5.8239   33.1314 H   0  0  0  0  0  0  0  0  0  0  0  0
  -13.9410    3.9750   31.9762 H   0  0  0  0  0  0  0  0  0  0  0  0
  -12.8671    3.1371   33.1473 H   0  0  0  0  0  0  0  0  0  0  0  0
  -18.0811    4.1404   35.3418 H   0  0  0  0  0  0  0  0  0  0  0  0
  -20.2259    3.8715   34.2775 H   0  0  0  0  0  0  0  0  0  0  0  0
  -19.5117    4.4897   32.7496 H   0  0  0  0  0  0  0  0  0  0  0  0
  -21.5419    5.8372   32.9458 H   0  0  0  0  0  0  0  0  0  0  0  0
  -22.4024    7.9591   33.0757 H   0  0  0  0  0  0  0  0  0  0  0  0
  -22.7083    8.8403   35.3780 H   0  0  0  0  0  0  0  0  0  0  0  0
  -21.5708    7.5922   35.9903 H   0  0  0  0  0  0  0  0  0  0  0  0
  -25.0508    6.0971   34.3294 H   0  0  0  0  0  0  0  0  0  0  0  0
  -24.1159    7.2829   33.4810 H   0  0  0  0  0  0  0  0  0  0  0  0
  -20.3864    8.4780   31.7650 H   0  0  0  0  0  0  0  0  0  0  0  0
  -18.2825   10.0338   33.0075 H   0  0  0  0  0  0  0  0  0  0  0  0
  -18.7600   10.6440   30.1825 H   0  0  0  0  0  0  0  0  0  0  0  0
  -18.7790    8.8728   30.4811 H   0  0  0  0  0  0  0  0  0  0  0  0
  -16.4336   11.9459   30.9957 H   0  0  0  0  0  0  0  0  0  0  0  0
  -13.9729   11.1204   30.9784 H   0  0  0  0  0  0  0  0  0  0  0  0
  -17.3390    6.9164   30.7079 H   0  0  0  0  0  0  0  0  0  0  0  0
  -12.6504    8.6373   30.8494 H   0  0  0  0  0  0  0  0  0  0  0  0
  -15.4137    5.3715   30.6331 H   0  0  0  0  0  0  0  0  0  0  0  0
  -13.1050    6.2247   30.7092 H   0  0  0  0  0  0  0  0  0  0  0  0
  -20.8349   13.6341   33.3595 H   0  0  0  0  0  0  0  0  0  0  0  0
  -19.4890   14.2624   35.1920 H   0  0  0  0  0  0  0  0  0  0  0  0
  -18.9278   15.5106   34.0284 H   0  0  0  0  0  0  0  0  0  0  0  0
  -17.1823   13.8656   35.1872 H   0  0  0  0  0  0  0  0  0  0  0  0
  -17.0135   14.2961   33.4514 H   0  0  0  0  0  0  0  0  0  0  0  0
  -17.0575   11.9820   33.2127 H   0  0  0  0  0  0  0  0  0  0  0  0
  -18.0158   11.7432   34.7131 H   0  0  0  0  0  0  0  0  0  0  0  0
  -21.4922   15.2709   32.0481 H   0  0  0  0  0  0  0  0  0  0  0  0
  -20.3614   15.3962   29.3937 H   0  0  0  0  0  0  0  0  0  0  0  0
  -22.1228   17.0874   28.9816 H   0  0  0  0  0  0  0  0  0  0  0  0
  -22.4940   17.1219   30.7387 H   0  0  0  0  0  0  0  0  0  0  0  0
  -22.7788   15.6235   29.7898 H   0  0  0  0  0  0  0  0  0  0  0  0
  -19.3371   17.0929   28.3673 H   0  0  0  0  0  0  0  0  0  0  0  0
  -17.5274   18.6215   30.0253 H   0  0  0  0  0  0  0  0  0  0  0  0
  -16.7307   19.5695   27.8937 H   0  0  0  0  0  0  0  0  0  0  0  0
  -18.1094   18.7963   27.0404 H   0  0  0  0  0  0  0  0  0  0  0  0
  -17.1945   16.5720   27.6865 H   0  0  0  0  0  0  0  0  0  0  0  0
  -15.3447   16.6148   26.0429 H   0  0  0  0  0  0  0  0  0  0  0  0
  -15.3313   18.4094   26.1177 H   0  0  0  0  0  0  0  0  0  0  0  0
  -16.7726   17.5478   25.4797 H   0  0  0  0  0  0  0  0  0  0  0  0
  -15.8789   17.2744   29.6571 H   0  0  0  0  0  0  0  0  0  0  0  0
  -14.7563   18.1724   28.5802 H   0  0  0  0  0  0  0  0  0  0  0  0
  -14.8783   16.3843   28.4599 H   0  0  0  0  0  0  0  0  0  0  0  0
  1  2  1  0  0  0  0
  1 71  1  0  0  0  0
  1 72  1  0  0  0  0
  1 73  1  0  0  0  0
  2  3  1  0  0  0  0
  2  5  1  0  0  0  0
  2 74  1  6  0  0  0
  3  4  2  0  0  0  0
  3 12  1  0  0  0  0
  5  6  1  0  0  0  0
  5 75  1  0  0  0  0
  5 76  1  0  0  0  0
  6  7  2  0  0  0  0
  6  8  1  0  0  0  0
  7  9  1  0  0  0  0
  7 77  1  0  0  0  0
  8 10  2  0  0  0  0
  8 78  1  0  0  0  0
  9 11  2  0  0  0  0
  9 79  1  0  0  0  0
 10 11  1  0  0  0  0
 10 80  1  0  0  0  0
 11 81  1  0  0  0  0
 12 13  1  0  0  0  0
 12 82  1  0  0  0  0
 13 14  1  0  0  0  0
 13 16  1  0  0  0  0
 13 83  1  1  0  0  0
 14 15  2  0  0  0  0
 14 17  1  0  0  0  0
 16 84  1  0  0  0  0
 16 85  1  0  0  0  0
 16 86  1  0  0  0  0
 17 18  1  0  0  0  0
 17 23  1  0  0  0  0
 18 19  1  0  0  0  0
 18 21  1  0  0  0  0
 18 87  1  1  0  0  0
 19 20  2  0  0  0  0
 19 24  1  0  0  0  0
 21 22  1  0  0  0  0
 21 88  1  0  0  0  0
 21 89  1  0  0  0  0
 22 23  1  0  0  0  0
 22 90  1  0  0  0  0
 22 91  1  0  0  0  0
 23 92  1  0  0  0  0
 23 93  1  0  0  0  0
 24 25  1  0  0  0  0
 24 94  1  0  0  0  0
 25 26  1  0  0  0  0
 25 95  1  0  0  0  0
 25 96  1  0  0  0  0
 26 27  2  0  0  0  0
 26 28  1  0  0  0  0
 28 29  1  0  0  0  0
 28 97  1  0  0  0  0
 29 30  1  0  0  0  0
 29 32  1  0  0  0  0
 29 98  1  6  0  0  0
 30 31  2  0  0  0  0
 30 36  1  0  0  0  0
 32 33  1  0  0  0  0
 32 99  1  0  0  0  0
 32100  1  0  0  0  0
 33 34  2  0  0  0  0
 33 35  1  0  0  0  0
 35101  1  0  0  0  0
 35102  1  0  0  0  0
 36 37  1  0  0  0  0
 36103  1  0  0  0  0
 37 38  1  0  0  0  0
 37 40  1  0  0  0  0
 37104  1  1  0  0  0
 38 39  2  0  0  0  0
 38 50  1  0  0  0  0
 40 41  1  0  0  0  0
 40105  1  0  0  0  0
 40106  1  0  0  0  0
 41 42  2  0  0  0  0
 41 43  1  0  0  0  0
 42 44  1  0  0  0  0
 42107  1  0  0  0  0
 43 45  2  0  0  0  0
 43 46  1  0  0  0  0
 44 45  1  0  0  0  0
 44108  1  0  0  0  0
 45 47  1  0  0  0  0
 46 48  2  0  0  0  0
 46109  1  0  0  0  0
 47 49  2  0  0  0  0
 47110  1  0  0  0  0
 48 49  1  0  0  0  0
 48111  1  0  0  0  0
 49112  1  0  0  0  0
 50 51  1  0  0  0  0
 50 56  1  0  0  0  0
 51 52  1  0  0  0  0
 51 54  1  0  0  0  0
 51113  1  1  0  0  0
 52 53  2  0  0  0  0
 52 57  1  0  0  0  0
 54 55  1  0  0  0  0
 54114  1  0  0  0  0
 54115  1  0  0  0  0
 55 56  1  0  0  0  0
 55116  1  0  0  0  0
 55117  1  0  0  0  0
 56118  1  0  0  0  0
 56119  1  0  0  0  0
 57 58  1  0  0  0  0
 57120  1  0  0  0  0
 58 59  1  0  0  0  0
 58 61  1  0  0  0  0
 58121  1  6  0  0  0
 59 60  2  0  0  0  0
 59 62  1  0  0  0  0
 61122  1  0  0  0  0
 61123  1  0  0  0  0
 61124  1  0  0  0  0
 62 63  1  0  0  0  0
 62125  1  0  0  0  0
 63 64  1  0  0  0  0
 63 66  1  0  0  0  0
 63126  1  1  0  0  0
 64 65  1  0  0  0  0
 64 70  2  0  0  0  0
 66 67  1  0  0  0  0
 66127  1  0  0  0  0
 66128  1  0  0  0  0
 67 68  1  0  0  0  0
 67 69  1  0  0  0  0
 67129  1  0  0  0  0
 68130  1  0  0  0  0
 68131  1  0  0  0  0
 68132  1  0  0  0  0
 69133  1  0  0  0  0
 69134  1  0  0  0  0
 69135  1  0  0  0  0
M  CHG  2   1   1  65  -1
M  END
