4pgc_ligand
 OpenBabel08222323353D

132135  0  0  1  0  0  0  0  0999 V2000
  -29.7190   17.8570   -6.8420 N   0  3  0  0  0  0  0  0  0  0  0  0
  -30.8880   18.7810   -6.7260 C   0  0  2  0  0  0  0  0  0  0  0  0
  -30.5600   20.0720   -7.4800 C   0  0  0  0  0  0  0  0  0  0  0  0
  -29.7570   20.8810   -7.0020 O   0  0  0  0  0  0  0  0  0  0  0  0
  -31.1800   19.0700   -5.2450 C   0  0  0  0  0  0  0  0  0  0  0  0
  -32.6410   18.9800   -4.8670 C   0  0  0  0  0  0  0  0  0  0  0  0
  -33.3030   17.7530   -4.8600 C   0  0  0  0  0  0  0  0  0  0  0  0
  -33.3520   20.1180   -4.4830 C   0  0  0  0  0  0  0  0  0  0  0  0
  -34.6430   17.6650   -4.4980 C   0  0  0  0  0  0  0  0  0  0  0  0
  -34.6910   20.0350   -4.1200 C   0  0  0  0  0  0  0  0  0  0  0  0
  -35.3380   18.8070   -4.1270 C   0  0  0  0  0  0  0  0  0  0  0  0
  -31.1730   20.2480   -8.6560 N   0  0  0  0  0  0  0  0  0  0  0  0
  -30.8480   21.3520   -9.5880 C   0  0  2  0  0  0  0  0  0  0  0  0
  -30.7480   22.7570   -8.9580 C   0  0  0  0  0  0  0  0  0  0  0  0
  -29.7010   23.4040   -9.0830 O   0  0  0  0  0  0  0  0  0  0  0  0
  -31.8120   21.3570  -10.7740 C   0  0  0  0  0  0  0  0  0  0  0  0
  -31.8290   23.2570   -8.3160 N   0  0  0  0  0  0  0  0  0  0  0  0
  -33.2030   22.8140   -8.2070 C   0  0  2  0  0  0  0  0  0  0  0  0
  -34.0930   23.7240   -9.0560 C   0  0  0  0  0  0  0  0  0  0  0  0
  -33.5840   24.4940   -9.8750 O   0  0  0  0  0  0  0  0  0  0  0  0
  -33.4870   23.0460   -6.7280 C   0  0  0  0  0  0  0  0  0  0  0  0
  -32.7830   24.3350   -6.4550 C   0  0  0  0  0  0  0  0  0  0  0  0
  -31.6360   24.4280   -7.4440 C   0  0  0  0  0  0  0  0  0  0  0  0
  -35.4030   23.6600   -8.8420 N   0  0  0  0  0  0  0  0  0  0  0  0
  -36.3360   24.4740   -9.5940 C   0  0  0  0  0  0  0  0  0  0  0  0
  -36.5500   25.8210   -8.9380 C   0  0  0  0  0  0  0  0  0  0  0  0
  -35.8510   26.1830   -7.9800 O   0  0  0  0  0  0  0  0  0  0  0  0
  -37.5000   26.5700   -9.4970 N   0  0  0  0  0  0  0  0  0  0  0  0
  -38.1530   27.6740   -8.8030 C   0  0  2  0  0  0  0  0  0  0  0  0
  -37.1960   28.7650   -8.2930 C   0  0  0  0  0  0  0  0  0  0  0  0
  -37.1880   29.0950   -7.1020 O   0  0  0  0  0  0  0  0  0  0  0  0
  -38.9870   27.0940   -7.6500 C   0  0  0  0  0  0  0  0  0  0  0  0
  -40.2310   27.9050   -7.3610 C   0  0  0  0  0  0  0  0  0  0  0  0
  -41.1400   27.9850   -8.1890 O   0  0  0  0  0  0  0  0  0  0  0  0
  -40.2870   28.4980   -6.1750 N   0  0  0  0  0  0  0  0  0  0  0  0
  -36.3840   29.3080   -9.1990 N   0  0  0  0  0  0  0  0  0  0  0  0
  -35.5900   30.5050   -8.9170 C   0  0  1  0  0  0  0  0  0  0  0  0
  -34.3610   30.5870   -9.8070 C   0  0  0  0  0  0  0  0  0  0  0  0
  -33.2970   29.5370   -9.5710 C   0  0  0  0  0  0  0  0  0  0  0  0
  -32.8490   29.1410   -8.2910 C   0  0  0  0  0  0  0  0  0  0  0  0
  -31.8390   28.1660   -8.1690 C   0  0  0  0  0  0  0  0  0  0  0  0
  -32.7220   28.9750  -10.7110 C   0  0  0  0  0  0  0  0  0  0  0  0
  -31.7200   28.0240  -10.5710 C   0  0  0  0  0  0  0  0  0  0  0  0
  -31.2650   27.6070   -9.3220 C   0  0  0  0  0  0  0  0  0  0  0  0
  -30.2700   26.6570   -9.2560 O   0  0  0  0  0  0  0  0  0  0  0  0
  -36.4490   31.7190   -9.1840 C   0  0  0  0  0  0  0  0  0  0  0  0
  -37.3300   31.6830  -10.0350 O   0  0  0  0  0  0  0  0  0  0  0  0
  -31.0870   27.4830   -6.3330 I   0  0  0  0  0  0  0  0  0  0  0  0
  -30.8220   27.1300  -12.2140 I   0  0  0  0  0  0  0  0  0  0  0  0
  -36.1970   32.8190   -8.4810 N   0  0  0  0  0  0  0  0  0  0  0  0
  -37.0250   34.0180   -8.6630 C   0  0  2  0  0  0  0  0  0  0  0  0
  -36.7570   34.7290   -9.9820 C   0  0  0  0  0  0  0  0  0  0  0  0
  -35.6480   34.6720  -10.4920 O   0  0  0  0  0  0  0  0  0  0  0  0
  -36.6210   34.9040   -7.4800 C   0  0  0  0  0  0  0  0  0  0  0  0
  -35.2180   34.5020   -7.1720 C   0  0  0  0  0  0  0  0  0  0  0  0
  -35.1240   33.0370   -7.4870 C   0  0  0  0  0  0  0  0  0  0  0  0
  -37.7670   35.4050  -10.5150 N   0  0  0  0  0  0  0  0  0  0  0  0
  -37.6580   36.0870  -11.8080 C   0  0  2  0  0  0  0  0  0  0  0  0
  -36.6430   37.2080  -11.7380 C   0  0  0  0  0  0  0  0  0  0  0  0
  -36.5300   37.8770  -10.7110 O   0  0  0  0  0  0  0  0  0  0  0  0
  -39.0110   36.6490  -12.2340 C   0  0  0  0  0  0  0  0  0  0  0  0
  -35.9050   37.4020  -12.8290 N   0  0  0  0  0  0  0  0  0  0  0  0
  -34.9980   38.5320  -12.9510 C   0  0  2  0  0  0  0  0  0  0  0  0
  -35.8080   39.8200  -13.0390 C   0  0  0  0  0  0  0  0  0  0  0  0
  -36.9990   39.7700  -13.3280 O   0  5  0  0  0  0  0  0  0  0  0  0
  -34.1100   38.3900  -14.1900 C   0  0  0  0  0  0  0  0  0  0  0  0
  -33.0980   37.2410  -14.2130 C   0  0  0  0  0  0  0  0  0  0  0  0
  -32.3390   37.2160  -15.5310 C   0  0  0  0  0  0  0  0  0  0  0  0
  -32.1170   37.3510  -13.0640 C   0  0  0  0  0  0  0  0  0  0  0  0
  -35.3090   40.9320  -12.8200 O   0  0  0  0  0  0  0  0  0  0  0  0
  -29.9181   17.0000   -6.3502 H   0  0  0  0  0  0  0  0  0  0  0  0
  -28.9043   18.2937   -6.4399 H   0  0  0  0  0  0  0  0  0  0  0  0
  -29.5462   17.6541   -7.8141 H   0  0  0  0  0  0  0  0  0  0  0  0
  -31.7731   18.3110   -7.1796 H   0  0  0  0  0  0  0  0  0  0  0  0
  -30.8278   20.0868   -5.0170 H   0  0  0  0  0  0  0  0  0  0  0  0
  -30.6219   18.3435   -4.6362 H   0  0  0  0  0  0  0  0  0  0  0  0
  -32.7655   16.8545   -5.1408 H   0  0  0  0  0  0  0  0  0  0  0  0
  -32.8528   21.0801   -4.4677 H   0  0  0  0  0  0  0  0  0  0  0  0
  -35.1444   16.7040   -4.5057 H   0  0  0  0  0  0  0  0  0  0  0  0
  -35.2304   20.9298   -3.8312 H   0  0  0  0  0  0  0  0  0  0  0  0
  -36.3822   18.7405   -3.8437 H   0  0  0  0  0  0  0  0  0  0  0  0
  -31.8879   19.6003   -8.9194 H   0  0  0  0  0  0  0  0  0  0  0  0
  -29.8479   21.1274   -9.9872 H   0  0  0  0  0  0  0  0  0  0  0  0
  -31.5537   22.1831  -11.4529 H   0  0  0  0  0  0  0  0  0  0  0  0
  -32.8412   21.4902  -10.4094 H   0  0  0  0  0  0  0  0  0  0  0  0
  -31.7348   20.4014  -11.3133 H   0  0  0  0  0  0  0  0  0  0  0  0
  -33.3298   21.7605   -8.4970 H   0  0  0  0  0  0  0  0  0  0  0  0
  -33.0759   22.2319   -6.1130 H   0  0  0  0  0  0  0  0  0  0  0  0
  -34.5672   23.1371   -6.5413 H   0  0  0  0  0  0  0  0  0  0  0  0
  -32.3964   24.3443   -5.4252 H   0  0  0  0  0  0  0  0  0  0  0  0
  -33.4730   25.1801   -6.5953 H   0  0  0  0  0  0  0  0  0  0  0  0
  -31.6925   25.3615   -8.0231 H   0  0  0  0  0  0  0  0  0  0  0  0
  -30.6669   24.3757   -6.9263 H   0  0  0  0  0  0  0  0  0  0  0  0
  -35.7533   23.0346   -8.1448 H   0  0  0  0  0  0  0  0  0  0  0  0
  -37.3005   23.9487   -9.6547 H   0  0  0  0  0  0  0  0  0  0  0  0
  -35.9385   24.6293  -10.6079 H   0  0  0  0  0  0  0  0  0  0  0  0
  -37.7779   26.3656  -10.4356 H   0  0  0  0  0  0  0  0  0  0  0  0
  -38.8385   28.1546   -9.5165 H   0  0  0  0  0  0  0  0  0  0  0  0
  -38.3646   27.0700   -6.7434 H   0  0  0  0  0  0  0  0  0  0  0  0
  -39.2887   26.0699   -7.9149 H   0  0  0  0  0  0  0  0  0  0  0  0
  -41.0851   29.0475   -5.9279 H   0  0  0  0  0  0  0  0  0  0  0  0
  -39.5311   28.3953   -5.5284 H   0  0  0  0  0  0  0  0  0  0  0  0
  -36.3146   28.8837  -10.1018 H   0  0  0  0  0  0  0  0  0  0  0  0
  -35.2753   30.4919   -7.8631 H   0  0  0  0  0  0  0  0  0  0  0  0
  -33.8996   31.5736   -9.6529 H   0  0  0  0  0  0  0  0  0  0  0  0
  -34.6955   30.4977  -10.8511 H   0  0  0  0  0  0  0  0  0  0  0  0
  -33.2821   29.5871   -7.4030 H   0  0  0  0  0  0  0  0  0  0  0  0
  -33.0545   29.2780  -11.6973 H   0  0  0  0  0  0  0  0  0  0  0  0
  -29.4935   26.9821   -9.6964 H   0  0  0  0  0  0  0  0  0  0  0  0
  -38.0923   33.7573   -8.6095 H   0  0  0  0  0  0  0  0  0  0  0  0
  -37.2762   34.7206   -6.6157 H   0  0  0  0  0  0  0  0  0  0  0  0
  -36.6684   35.9675   -7.7571 H   0  0  0  0  0  0  0  0  0  0  0  0
  -34.9951   34.6787   -6.1094 H   0  0  0  0  0  0  0  0  0  0  0  0
  -34.5125   35.0720   -7.7944 H   0  0  0  0  0  0  0  0  0  0  0  0
  -34.1400   32.7903   -7.9124 H   0  0  0  0  0  0  0  0  0  0  0  0
  -35.2962   32.4308   -6.5854 H   0  0  0  0  0  0  0  0  0  0  0  0
  -38.6330   35.4508  -10.0170 H   0  0  0  0  0  0  0  0  0  0  0  0
  -37.3260   35.3570  -12.5608 H   0  0  0  0  0  0  0  0  0  0  0  0
  -38.9082   37.1560  -13.2048 H   0  0  0  0  0  0  0  0  0  0  0  0
  -39.3630   37.3685  -11.4801 H   0  0  0  0  0  0  0  0  0  0  0  0
  -39.7372   35.8278  -12.3243 H   0  0  0  0  0  0  0  0  0  0  0  0
  -35.9764   36.7523  -13.5859 H   0  0  0  0  0  0  0  0  0  0  0  0
  -34.3561   38.5710  -12.0586 H   0  0  0  0  0  0  0  0  0  0  0  0
  -33.5449   39.3275  -14.2983 H   0  0  0  0  0  0  0  0  0  0  0  0
  -34.7743   38.2599  -15.0571 H   0  0  0  0  0  0  0  0  0  0  0  0
  -33.6499   36.2951  -14.1097 H   0  0  0  0  0  0  0  0  0  0  0  0
  -31.6195   36.3840  -15.5240 H   0  0  0  0  0  0  0  0  0  0  0  0
  -31.7999   38.1659  -15.6618 H   0  0  0  0  0  0  0  0  0  0  0  0
  -33.0487   37.0799  -16.3603 H   0  0  0  0  0  0  0  0  0  0  0  0
  -32.6679   37.3689  -12.1120 H   0  0  0  0  0  0  0  0  0  0  0  0
  -31.5335   38.2777  -13.1674 H   0  0  0  0  0  0  0  0  0  0  0  0
  -31.4373   36.4862  -13.0781 H   0  0  0  0  0  0  0  0  0  0  0  0
  1  2  1  0  0  0  0
  1 71  1  0  0  0  0
  1 72  1  0  0  0  0
  1 73  1  0  0  0  0
  2  3  1  0  0  0  0
  2  5  1  0  0  0  0
  2 74  1  6  0  0  0
  3  4  2  0  0  0  0
  3 12  1  0  0  0  0
  5  6  1  0  0  0  0
  5 75  1  0  0  0  0
  5 76  1  0  0  0  0
  6  7  2  0  0  0  0
  6  8  1  0  0  0  0
  7  9  1  0  0  0  0
  7 77  1  0  0  0  0
  8 10  2  0  0  0  0
  8 78  1  0  0  0  0
  9 11  2  0  0  0  0
  9 79  1  0  0  0  0
 10 11  1  0  0  0  0
 10 80  1  0  0  0  0
 11 81  1  0  0  0  0
 12 13  1  0  0  0  0
 12 82  1  0  0  0  0
 13 14  1  0  0  0  0
 13 16  1  0  0  0  0
 13 83  1  6  0  0  0
 14 15  2  0  0  0  0
 14 17  1  0  0  0  0
 16 84  1  0  0  0  0
 16 85  1  0  0  0  0
 16 86  1  0  0  0  0
 17 18  1  0  0  0  0
 17 23  1  0  0  0  0
 18 19  1  0  0  0  0
 18 21  1  0  0  0  0
 18 87  1  6  0  0  0
 19 20  2  0  0  0  0
 19 24  1  0  0  0  0
 21 22  1  0  0  0  0
 21 88  1  0  0  0  0
 21 89  1  0  0  0  0
 22 23  1  0  0  0  0
 22 90  1  0  0  0  0
 22 91  1  0  0  0  0
 23 92  1  0  0  0  0
 23 93  1  0  0  0  0
 24 25  1  0  0  0  0
 24 94  1  0  0  0  0
 25 26  1  0  0  0  0
 25 95  1  0  0  0  0
 25 96  1  0  0  0  0
 26 27  2  0  0  0  0
 26 28  1  0  0  0  0
 28 29  1  0  0  0  0
 28 97  1  0  0  0  0
 29 30  1  0  0  0  0
 29 32  1  0  0  0  0
 29 98  1  6  0  0  0
 30 31  2  0  0  0  0
 30 36  1  0  0  0  0
 32 33  1  0  0  0  0
 32 99  1  0  0  0  0
 32100  1  0  0  0  0
 33 34  2  0  0  0  0
 33 35  1  0  0  0  0
 35101  1  0  0  0  0
 35102  1  0  0  0  0
 36 37  1  0  0  0  0
 36103  1  0  0  0  0
 37 38  1  0  0  0  0
 37 46  1  0  0  0  0
 37104  1  1  0  0  0
 38 39  1  0  0  0  0
 38105  1  0  0  0  0
 38106  1  0  0  0  0
 39 40  2  0  0  0  0
 39 42  1  0  0  0  0
 40 41  1  0  0  0  0
 40107  1  0  0  0  0
 41 44  2  0  0  0  0
 41 48  1  0  0  0  0
 42 43  2  0  0  0  0
 42108  1  0  0  0  0
 43 44  1  0  0  0  0
 43 49  1  0  0  0  0
 44 45  1  0  0  0  0
 45109  1  0  0  0  0
 46 47  2  0  0  0  0
 46 50  1  0  0  0  0
 50 51  1  0  0  0  0
 50 56  1  0  0  0  0
 51 52  1  0  0  0  0
 51 54  1  0  0  0  0
 51110  1  1  0  0  0
 52 53  2  0  0  0  0
 52 57  1  0  0  0  0
 54 55  1  0  0  0  0
 54111  1  0  0  0  0
 54112  1  0  0  0  0
 55 56  1  0  0  0  0
 55113  1  0  0  0  0
 55114  1  0  0  0  0
 56115  1  0  0  0  0
 56116  1  0  0  0  0
 57 58  1  0  0  0  0
 57117  1  0  0  0  0
 58 59  1  0  0  0  0
 58 61  1  0  0  0  0
 58118  1  6  0  0  0
 59 60  2  0  0  0  0
 59 62  1  0  0  0  0
 61119  1  0  0  0  0
 61120  1  0  0  0  0
 61121  1  0  0  0  0
 62 63  1  0  0  0  0
 62122  1  0  0  0  0
 63 64  1  0  0  0  0
 63 66  1  0  0  0  0
 63123  1  1  0  0  0
 64 65  1  0  0  0  0
 64 70  2  0  0  0  0
 66 67  1  0  0  0  0
 66124  1  0  0  0  0
 66125  1  0  0  0  0
 67 68  1  0  0  0  0
 67 69  1  0  0  0  0
 67126  1  0  0  0  0
 68127  1  0  0  0  0
 68128  1  0  0  0  0
 68129  1  0  0  0  0
 69130  1  0  0  0  0
 69131  1  0  0  0  0
 69132  1  0  0  0  0
M  CHG  2   1   1  65  -1
M  END
