4ph4_ligand
 OpenBabel08222323353D

 41 44  0  0  0  0  0  0  0  0999 V2000
    2.2840    6.5480  -13.6430 C   0  0  0  0  0  0  0  0  0  0  0  0
    1.2660    5.6310  -13.3650 C   0  0  0  0  0  0  0  0  0  0  0  0
    0.8130    4.7170  -14.4500 C   0  0  0  0  0  0  0  0  0  0  0  0
   -1.1500   -0.5540  -13.5680 C   0  0  0  0  0  0  0  0  0  0  0  0
    0.6990    5.7340  -12.0710 C   0  0  0  0  0  0  0  0  0  0  0  0
   -0.2390    4.7190  -11.4580 C   0  0  0  0  0  0  0  0  0  0  0  0
   -1.6710    5.1860  -11.1720 C   0  0  0  0  0  0  0  0  0  0  0  0
   -2.1770    4.9440   -9.7920 C   0  0  0  0  0  0  0  0  0  0  0  0
   -1.9040    6.3390  -10.2440 C   0  0  0  0  0  0  0  0  0  0  0  0
    2.3340    8.5840  -10.8150 N   0  0  0  0  0  0  0  0  0  0  0  0
    2.0370    7.5710  -11.6340 C   0  0  0  0  0  0  0  0  0  0  0  0
    1.0760    6.7120  -11.2270 N   0  0  0  0  0  0  0  0  0  0  0  0
    2.6850    7.5190  -12.8180 N   0  0  0  0  0  0  0  0  0  0  0  0
    0.3640    3.5030  -14.0780 N   0  0  0  0  0  0  0  0  0  0  0  0
    0.0640    2.6450  -15.0710 C   0  0  0  0  0  0  0  0  0  0  0  0
    0.1580    2.8890  -16.3880 N   0  0  0  0  0  0  0  0  0  0  0  0
    0.5970    4.1110  -16.7150 C   0  0  0  0  0  0  0  0  0  0  0  0
    0.9350    5.0680  -15.7880 C   0  0  0  0  0  0  0  0  0  0  0  0
   -0.3610    1.3920  -14.7520 N   0  0  0  0  0  0  0  0  0  0  0  0
   -0.5820    0.7160  -13.5360 C   0  0  0  0  0  0  0  0  0  0  0  0
   -1.3680   -1.2040  -12.3630 C   0  0  0  0  0  0  0  0  0  0  0  0
   -1.0530   -0.6880  -11.1710 N   0  0  0  0  0  0  0  0  0  0  0  0
   -0.4950    0.5280  -11.1620 C   0  0  0  0  0  0  0  0  0  0  0  0
   -0.2480    1.2720  -12.3040 C   0  0  0  0  0  0  0  0  0  0  0  0
    2.7858    6.4648  -14.6003 H   0  0  0  0  0  0  0  0  0  0  0  0
   -1.4147   -1.0222  -14.5092 H   0  0  0  0  0  0  0  0  0  0  0  0
    0.2012    4.3923  -10.5044 H   0  0  0  0  0  0  0  0  0  0  0  0
   -0.2993    3.8631  -12.1464 H   0  0  0  0  0  0  0  0  0  0  0  0
   -2.3114    5.0419  -12.0547 H   0  0  0  0  0  0  0  0  0  0  0  0
   -1.5244    4.4720   -9.0428 H   0  0  0  0  0  0  0  0  0  0  0  0
   -3.2136    4.6097   -9.6380 H   0  0  0  0  0  0  0  0  0  0  0  0
   -2.7385    7.0322  -10.4257 H   0  0  0  0  0  0  0  0  0  0  0  0
   -1.0493    6.8945   -9.8305 H   0  0  0  0  0  0  0  0  0  0  0  0
    1.8639    8.6629   -9.9019 H   0  0  0  0  0  0  0  0  0  0  0  0
    3.0331    9.2860  -11.0967 H   0  0  0  0  0  0  0  0  0  0  0  0
    0.6908    4.3586  -17.7662 H   0  0  0  0  0  0  0  0  0  0  0  0
    1.2806    6.0508  -16.0874 H   0  0  0  0  0  0  0  0  0  0  0  0
   -0.5653    0.8125  -15.5787 H   0  0  0  0  0  0  0  0  0  0  0  0
   -1.8206   -2.1887  -12.3891 H   0  0  0  0  0  0  0  0  0  0  0  0
   -0.2201    0.9561  -10.2048 H   0  0  0  0  0  0  0  0  0  0  0  0
    0.1933    2.2601  -12.2403 H   0  0  0  0  0  0  0  0  0  0  0  0
  1 13  1  0  0  0  0
  1 25  1  0  0  0  0
  2  1  2  0  0  0  0
  2  5  1  0  0  0  0
  3  2  1  0  0  0  0
  3 18  1  0  0  0  0
  4 21  1  0  0  0  0
  4 26  1  0  0  0  0
  5  6  1  0  0  0  0
  5 12  2  0  0  0  0
  6  7  1  0  0  0  0
  6 27  1  0  0  0  0
  6 28  1  0  0  0  0
  7  8  1  0  0  0  0
  7  9  1  0  0  0  0
  7 29  1  0  0  0  0
  8 30  1  0  0  0  0
  8 31  1  0  0  0  0
  9  8  1  0  0  0  0
  9 32  1  0  0  0  0
  9 33  1  0  0  0  0
 10 34  1  0  0  0  0
 10 35  1  0  0  0  0
 11 10  1  0  0  0  0
 12 11  1  0  0  0  0
 13 11  2  0  0  0  0
 14  3  2  0  0  0  0
 15 14  1  0  0  0  0
 15 16  2  0  0  0  0
 16 17  1  0  0  0  0
 17 18  2  0  0  0  0
 17 36  1  0  0  0  0
 18 37  1  0  0  0  0
 19 15  1  0  0  0  0
 19 20  1  0  0  0  0
 19 38  1  0  0  0  0
 20  4  2  0  0  0  0
 20 24  1  0  0  0  0
 21 22  2  0  0  0  0
 21 39  1  0  0  0  0
 22 23  1  0  0  0  0
 23 24  2  0  0  0  0
 23 40  1  0  0  0  0
 24 41  1  0  0  0  0
M  END
