4pid_ligand
 OpenBabel08222323353D

 30 31  0  0  0  0  0  0  0  0999 V2000
  -24.6560   50.4500   39.0120 C   0  0  0  0  0  0  0  0  0  0  0  0
  -23.7850   50.6510   40.1100 C   0  0  0  0  0  0  0  0  0  0  0  0
  -27.0950   46.4310   38.3930 C   0  0  0  0  0  0  0  0  0  0  0  0
  -21.1570   52.7170   38.6040 C   0  0  0  0  0  0  0  0  0  0  0  0
  -25.9150   46.0740   39.1230 C   0  0  0  0  0  0  0  0  0  0  0  0
  -25.4810   44.7260   39.2230 C   0  0  0  0  0  0  0  0  0  0  0  0
  -26.2410   43.6900   38.6110 C   0  0  0  0  0  0  0  0  0  0  0  0
  -27.4250   44.0120   37.8760 C   0  0  0  0  0  0  0  0  0  0  0  0
  -27.8480   45.3740   37.7690 C   0  0  0  0  0  0  0  0  0  0  0  0
  -22.6090   51.3750   39.9730 N   0  0  0  0  0  0  0  0  0  0  0  0
  -22.3210   51.8700   38.7080 C   0  0  0  0  0  0  0  0  0  0  0  0
  -23.1700   51.7210   37.6190 N   0  0  0  0  0  0  0  0  0  0  0  0
  -24.3390   51.0230   37.7370 C   0  0  0  0  0  0  0  0  0  0  0  0
  -25.8930   49.5480   39.2650 C   0  0  0  0  0  0  0  0  0  0  0  0
  -26.2410   49.3660   40.4700 O   0  0  0  0  0  0  0  0  0  0  0  0
  -26.4370   48.8810   38.1720 N   0  0  0  0  0  0  0  0  0  0  0  0
  -27.5680   47.9250   38.2690 C   0  0  0  0  0  0  0  0  0  0  0  0
  -20.3690   52.7620   39.5820 N   0  0  0  0  0  0  0  0  0  0  0  0
  -24.0416   50.2314   41.0760 H   0  0  0  0  0  0  0  0  0  0  0  0
  -20.9671   53.3002   37.7041 H   0  0  0  0  0  0  0  0  0  0  0  0
  -25.3395   46.8523   39.6109 H   0  0  0  0  0  0  0  0  0  0  0  0
  -24.5729   44.4864   39.7642 H   0  0  0  0  0  0  0  0  0  0  0  0
  -25.9228   42.6577   38.7018 H   0  0  0  0  0  0  0  0  0  0  0  0
  -28.0004   43.2255   37.4012 H   0  0  0  0  0  0  0  0  0  0  0  0
  -28.7462   45.6135   37.2115 H   0  0  0  0  0  0  0  0  0  0  0  0
  -25.0069   50.9061   36.8912 H   0  0  0  0  0  0  0  0  0  0  0  0
  -26.0435   49.0557   37.2694 H   0  0  0  0  0  0  0  0  0  0  0  0
  -28.1672   48.1786   39.1559 H   0  0  0  0  0  0  0  0  0  0  0  0
  -28.1892   48.0231   37.3665 H   0  0  0  0  0  0  0  0  0  0  0  0
  -19.5470   53.3440   39.5406 H   0  0  0  0  0  0  0  0  0  0  0  0
  1  2  2  0  0  0  0
  1 13  1  0  0  0  0
  2 10  1  0  0  0  0
  2 19  1  0  0  0  0
  3  5  2  0  0  0  0
  3  9  1  0  0  0  0
  4 18  2  0  0  0  0
  4 20  1  0  0  0  0
  5  6  1  0  0  0  0
  5 21  1  0  0  0  0
  6  7  2  0  0  0  0
  6 22  1  0  0  0  0
  7 23  1  0  0  0  0
  8  7  1  0  0  0  0
  8 24  1  0  0  0  0
  9  8  2  0  0  0  0
  9 25  1  0  0  0  0
 10 11  2  0  0  0  0
 11  4  1  0  0  0  0
 12 11  1  0  0  0  0
 13 12  2  0  0  0  0
 13 26  1  0  0  0  0
 14  1  1  0  0  0  0
 14 15  2  0  0  0  0
 16 14  1  0  0  0  0
 16 17  1  0  0  0  0
 16 27  1  0  0  0  0
 17  3  1  0  0  0  0
 17 28  1  0  0  0  0
 17 29  1  0  0  0  0
 18 30  1  0  0  0  0
M  END
