4pji_ligand
 OpenBabel08222323353D

 26 27  0  0  1  0  0  0  0  0999 V2000
  217.0140   67.0110  165.4770 C   0  0  0  0  0  0  0  0  0  0  0  0
  215.9170   70.1610  164.0780 C   0  0  0  0  0  0  0  0  0  0  0  0
  222.2890   65.3190  167.2850 C   0  0  0  0  0  0  0  0  0  0  0  0
  217.0700   70.9200  164.2110 C   0  0  0  0  0  0  0  0  0  0  0  0
  214.6750   70.7050  163.4470 C   0  0  0  0  0  0  0  0  0  0  0  0
  220.8900   65.5520  166.8030 C   0  0  0  0  0  0  0  0  0  0  0  0
  219.3640   68.6090  165.6430 N   0  0  0  0  0  0  0  0  0  0  0  0
  220.5760   66.8740  166.5530 N   0  0  0  0  0  0  0  0  0  0  0  0
  218.2070   66.5770  166.0090 N   0  0  0  0  0  0  0  0  0  0  0  0
  220.1220   64.6210  166.6000 O   0  0  0  0  0  0  0  0  0  0  0  0
  219.3730   67.2790  166.1240 C   0  0  2  0  0  3  0  0  0  0  0  0
  218.2230   69.1440  165.0930 C   0  0  0  0  0  0  0  0  0  0  0  0
  218.2190   70.4300  164.6970 N   0  0  0  0  0  0  0  0  0  0  0  0
  215.8910   68.8750  164.4660 N   0  0  0  0  0  0  0  0  0  0  0  0
  217.0200   68.3600  164.9810 C   0  0  0  0  0  0  0  0  0  0  0  0
  216.0280   66.2800  165.4780 O   0  0  0  0  0  0  0  0  0  0  0  0
  222.4437   64.2434  167.4555 H   0  0  0  0  0  0  0  0  0  0  0  0
  222.4486   65.8661  168.2259 H   0  0  0  0  0  0  0  0  0  0  0  0
  223.0021   65.6764  166.5275 H   0  0  0  0  0  0  0  0  0  0  0  0
  217.0406   71.9601  163.9071 H   0  0  0  0  0  0  0  0  0  0  0  0
  213.8932   69.9312  163.4497 H   0  0  0  0  0  0  0  0  0  0  0  0
  214.8910   71.0044  162.4108 H   0  0  0  0  0  0  0  0  0  0  0  0
  214.3272   71.5795  164.0164 H   0  0  0  0  0  0  0  0  0  0  0  0
  220.2183   69.1810  165.7052 H   0  0  0  0  0  0  0  0  0  0  0  0
  221.2838   67.5650  166.7000 H   0  0  0  0  0  0  0  0  0  0  0  0
  218.2218   65.6376  166.3515 H   0  0  0  0  0  0  0  0  0  0  0  0
  1 15  1  0  0  0  0
  1 16  2  0  0  0  0
  2  5  1  0  0  0  0
  2 14  1  0  0  0  0
  3 17  1  0  0  0  0
  3 18  1  0  0  0  0
  3 19  1  0  0  0  0
  4  2  2  0  0  0  0
  4 20  1  0  0  0  0
  5 21  1  0  0  0  0
  5 22  1  0  0  0  0
  5 23  1  0  0  0  0
  6  3  1  0  0  0  0
  6 10  2  0  0  0  0
  7 11  1  0  0  0  0
  7 24  1  0  0  0  0
  8  6  1  0  0  0  0
  8 25  1  0  0  0  0
  9  1  1  0  0  0  0
  9 26  1  0  0  0  0
 11  8  1  6  0  0  0
 11  9  1  0  0  0  0
 12  7  1  0  0  0  0
 12 13  2  0  0  0  0
 12 15  1  0  0  0  0
 13  4  1  0  0  0  0
 14 15  2  0  0  0  0
M  END
