4pkb_ligand
 OpenBabel08222323353D

 15 14  0  0  0  0  0  0  0  0999 V2000
   13.9670  -31.3260  -10.3090 C   0  0  0  0  0  0  0  0  0  0  0  0
   14.0580  -29.0620  -11.5870 O   0  0  0  0  0  0  0  0  0  0  0  0
   14.0740  -30.5420  -11.7610 P   0  0  2  0  0  0  0  0  0  0  0  0
   15.0510  -30.9110   -9.4320 C   0  0  0  0  0  0  0  0  0  0  0  0
   12.8300  -31.2940  -12.7560 O   0  0  0  0  0  0  0  0  0  0  0  0
   12.4200  -32.6980  -12.5630 C   0  0  0  0  0  0  0  0  0  0  0  0
   14.0307  -32.4113  -10.4766 H   0  0  0  0  0  0  0  0  0  0  0  0
   13.0040  -31.0840   -9.8356 H   0  0  0  0  0  0  0  0  0  0  0  0
   14.9639  -30.7601  -12.1812 H   0  0  0  0  0  0  0  0  0  0  0  0
   14.9678  -31.4395   -8.4709 H   0  0  0  0  0  0  0  0  0  0  0  0
   14.9890  -29.8262   -9.2605 H   0  0  0  0  0  0  0  0  0  0  0  0
   16.0158  -31.1535   -9.9014 H   0  0  0  0  0  0  0  0  0  0  0  0
   11.6348  -32.9538  -13.2896 H   0  0  0  0  0  0  0  0  0  0  0  0
   12.0319  -32.8297  -11.5422 H   0  0  0  0  0  0  0  0  0  0  0  0
   13.2876  -33.3573  -12.7133 H   0  0  0  0  0  0  0  0  0  0  0  0
  1  3  1  0  0  0  0
  1  4  1  0  0  0  0
  1  7  1  0  0  0  0
  1  8  1  0  0  0  0
  3  2  2  0  0  0  0
  3  5  1  0  0  0  0
  3  9  1  6  0  0  0
  4 10  1  0  0  0  0
  4 11  1  0  0  0  0
  4 12  1  0  0  0  0
  5  6  1  0  0  0  0
  6 13  1  0  0  0  0
  6 14  1  0  0  0  0
  6 15  1  0  0  0  0
M  END
