4pku_ligand
 OpenBabel08222323353D

 46 47  0  0  1  0  0  0  0  0999 V2000
    7.8790   15.3600   23.7160 C   0  0  0  0  0  0  0  0  0  0  0  0
    8.5540   16.1190   24.6670 C   0  0  0  0  0  0  0  0  0  0  0  0
    7.0110   14.3520   24.1190 C   0  0  0  0  0  0  0  0  0  0  0  0
    6.8200   14.1030   25.4720 C   0  0  0  0  0  0  0  0  0  0  0  0
    7.4980   14.8600   26.4210 C   0  0  0  0  0  0  0  0  0  0  0  0
    8.3630   15.8750   26.0260 C   0  0  0  0  0  0  0  0  0  0  0  0
    9.0880   16.6640   27.1040 C   0  0  0  0  0  0  0  0  0  0  0  0
    9.6320   17.9530   26.6850 N   0  0  0  0  0  0  0  0  0  0  0  0
   11.0800   18.0170   26.4680 C   0  0  2  0  0  0  0  0  0  0  0  0
   11.6330   16.7410   25.8390 C   0  0  0  0  0  0  0  0  0  0  0  0
   11.8620   18.2820   27.7240 C   0  0  0  0  0  0  0  0  0  0  0  0
   12.7340   19.2920   27.7560 N   0  0  0  0  0  0  0  0  0  0  0  0
   13.6340   19.2970   28.7510 O   0  0  0  0  0  0  0  0  0  0  0  0
   11.7550   17.4750   28.9290 O   0  0  0  0  0  0  0  0  0  0  0  0
    8.7490   19.1810   26.5210 S   0  0  0  0  0  0  0  0  0  0  0  0
    7.4860   18.7790   25.9690 O   0  0  0  0  0  0  0  0  0  0  0  0
    9.3930   20.1220   25.6510 O   0  0  0  0  0  0  0  0  0  0  0  0
    8.5230   19.8740   27.9430 C   0  0  0  0  0  0  0  0  0  0  0  0
    9.2340   21.0240   28.2680 C   0  0  0  0  0  0  0  0  0  0  0  0
    9.0470   21.6340   29.5020 C   0  0  0  0  0  0  0  0  0  0  0  0
    8.1490   21.0920   30.4150 C   0  0  0  0  0  0  0  0  0  0  0  0
    7.9630   21.6810   31.6090 F   0  0  0  0  0  0  0  0  0  0  0  0
    7.4400   19.9470   30.0940 C   0  0  0  0  0  0  0  0  0  0  0  0
    7.6270   19.3350   28.8590 C   0  0  0  0  0  0  0  0  0  0  0  0
    6.4680   19.3640   31.0850 C   0  0  0  0  0  0  0  0  0  0  0  0
    8.0780   15.6210   22.2640 N   0  0  0  0  0  0  0  0  0  0  0  0
    9.2314   16.9035   24.3496 H   0  0  0  0  0  0  0  0  0  0  0  0
    6.4840   13.7612   23.3786 H   0  0  0  0  0  0  0  0  0  0  0  0
    6.1422   13.3183   25.7882 H   0  0  0  0  0  0  0  0  0  0  0  0
    7.3514   14.6577   27.4758 H   0  0  0  0  0  0  0  0  0  0  0  0
    9.9221   16.0480   27.4710 H   0  0  0  0  0  0  0  0  0  0  0  0
    8.3785   16.8468   27.9245 H   0  0  0  0  0  0  0  0  0  0  0  0
   11.2643   18.8490   25.7725 H   0  0  0  0  0  0  0  0  0  0  0  0
   12.7193   16.8424   25.6986 H   0  0  0  0  0  0  0  0  0  0  0  0
   11.1514   16.5741   24.8642 H   0  0  0  0  0  0  0  0  0  0  0  0
   11.4270   15.8869   26.5008 H   0  0  0  0  0  0  0  0  0  0  0  0
   12.7172   20.0158   27.0662 H   0  0  0  0  0  0  0  0  0  0  0  0
   14.1941   20.0596   28.6660 H   0  0  0  0  0  0  0  0  0  0  0  0
    9.9355   21.4453   27.5571 H   0  0  0  0  0  0  0  0  0  0  0  0
    9.6005   22.5316   29.7530 H   0  0  0  0  0  0  0  0  0  0  0  0
    7.0734   18.4367   28.6105 H   0  0  0  0  0  0  0  0  0  0  0  0
    6.4576   19.9816   31.9952 H   0  0  0  0  0  0  0  0  0  0  0  0
    6.7754   18.3393   31.3408 H   0  0  0  0  0  0  0  0  0  0  0  0
    5.4608   19.3452   30.6432 H   0  0  0  0  0  0  0  0  0  0  0  0
    8.7196   16.3663   21.9579 H   0  0  0  0  0  0  0  0  0  0  0  0
    7.5740   15.0563   21.5654 H   0  0  0  0  0  0  0  0  0  0  0  0
  1  2  2  0  0  0  0
  1  3  1  0  0  0  0
  1 26  1  0  0  0  0
  2  6  1  0  0  0  0
  2 27  1  0  0  0  0
  3  4  2  0  0  0  0
  3 28  1  0  0  0  0
  4  5  1  0  0  0  0
  4 29  1  0  0  0  0
  5  6  2  0  0  0  0
  5 30  1  0  0  0  0
  6  7  1  0  0  0  0
  7  8  1  0  0  0  0
  7 31  1  0  0  0  0
  7 32  1  0  0  0  0
  8  9  1  0  0  0  0
  8 15  1  0  0  0  0
  9 10  1  0  0  0  0
  9 11  1  0  0  0  0
  9 33  1  6  0  0  0
 10 34  1  0  0  0  0
 10 35  1  0  0  0  0
 10 36  1  0  0  0  0
 11 12  1  0  0  0  0
 11 14  2  0  0  0  0
 12 13  1  0  0  0  0
 12 37  1  0  0  0  0
 13 38  1  0  0  0  0
 15 16  2  0  0  0  0
 15 17  2  0  0  0  0
 15 18  1  0  0  0  0
 18 19  2  0  0  0  0
 18 24  1  0  0  0  0
 19 20  1  0  0  0  0
 19 39  1  0  0  0  0
 20 21  2  0  0  0  0
 20 40  1  0  0  0  0
 21 22  1  0  0  0  0
 21 23  1  0  0  0  0
 23 24  2  0  0  0  0
 23 25  1  0  0  0  0
 24 41  1  0  0  0  0
 25 42  1  0  0  0  0
 25 43  1  0  0  0  0
 25 44  1  0  0  0  0
 26 45  1  0  0  0  0
 26 46  1  0  0  0  0
M  END
