4pkw_ligand
 OpenBabel08222323353D

 56 57  0  0  1  0  0  0  0  0999 V2000
   14.8940   19.1830   29.0150 O   0  0  0  0  0  0  0  0  0  0  0  0
   14.0660   19.1910   27.9010 N   0  0  0  0  0  0  0  0  0  0  0  0
   13.0360   18.3490   27.8540 C   0  0  0  0  0  0  0  0  0  0  0  0
   12.8130   17.5380   28.7370 O   0  0  0  0  0  0  0  0  0  0  0  0
   12.1370   18.4070   26.6410 C   0  0  0  0  0  0  0  0  0  0  0  0
   10.7530   18.9180   27.0360 C   0  0  2  0  0  0  0  0  0  0  0  0
    9.9600   19.1100   25.7720 C   0  0  0  0  0  0  0  0  0  0  0  0
   10.1470   20.0940   25.0790 O   0  0  0  0  0  0  0  0  0  0  0  0
    9.0810   18.1660   25.4300 N   0  0  0  0  0  0  0  0  0  0  0  0
    8.3330   18.2500   24.1820 C   0  0  2  0  0  0  0  0  0  0  0  0
    7.2310   19.2740   24.2570 C   0  0  0  0  0  0  0  0  0  0  0  0
    6.8340   19.6740   25.3440 O   0  0  0  0  0  0  0  0  0  0  0  0
    6.7020   19.6820   23.1050 N   0  0  0  0  0  0  0  0  0  0  0  0
    7.3980   20.5550   22.1770 C   0  0  0  0  0  0  0  0  0  0  0  0
    7.6830   16.9170   23.8290 C   0  0  0  0  0  0  0  0  0  0  0  0
    8.6200   15.7540   24.0590 C   0  0  0  0  0  0  0  0  0  0  0  0
    8.4540   14.7380   24.9870 C   0  0  0  0  0  0  0  0  0  0  0  0
    9.4730   13.8370   24.9280 N   0  0  0  0  0  0  0  0  0  0  0  0
   10.3680   14.1820   23.9890 C   0  0  0  0  0  0  0  0  0  0  0  0
   11.5570   13.6330   23.5320 C   0  0  0  0  0  0  0  0  0  0  0  0
   12.2380   14.2780   22.5030 C   0  0  0  0  0  0  0  0  0  0  0  0
   11.7610   15.4530   21.9180 C   0  0  0  0  0  0  0  0  0  0  0  0
   10.5790   16.0490   22.3420 C   0  0  0  0  0  0  0  0  0  0  0  0
    9.8810   15.4260   23.3640 C   0  0  0  0  0  0  0  0  0  0  0  0
   10.9660   20.2370   27.7790 C   0  0  0  0  0  0  0  0  0  0  0  0
    9.7140   20.8770   28.3660 C   0  0  0  0  0  0  0  0  0  0  0  0
    9.2520   20.1460   29.6200 C   0  0  0  0  0  0  0  0  0  0  0  0
    9.9940   22.3380   28.7040 C   0  0  0  0  0  0  0  0  0  0  0  0
   15.5783   19.8327   28.9043 H   0  0  0  0  0  0  0  0  0  0  0  0
   14.2408   19.8207   27.1441 H   0  0  0  0  0  0  0  0  0  0  0  0
   12.0431   17.3996   26.2095 H   0  0  0  0  0  0  0  0  0  0  0  0
   12.5760   19.0859   25.8951 H   0  0  0  0  0  0  0  0  0  0  0  0
   10.2419   18.1966   27.6904 H   0  0  0  0  0  0  0  0  0  0  0  0
    8.9330   17.3878   26.0403 H   0  0  0  0  0  0  0  0  0  0  0  0
    9.0321   18.5330   23.3813 H   0  0  0  0  0  0  0  0  0  0  0  0
    5.7813   19.3722   22.8678 H   0  0  0  0  0  0  0  0  0  0  0  0
    6.7571   20.7477   21.3040 H   0  0  0  0  0  0  0  0  0  0  0  0
    8.3300   20.0721   21.8481 H   0  0  0  0  0  0  0  0  0  0  0  0
    7.6342   21.5066   22.6757 H   0  0  0  0  0  0  0  0  0  0  0  0
    7.3908   16.9337   22.7687 H   0  0  0  0  0  0  0  0  0  0  0  0
    6.7880   16.7813   24.4539 H   0  0  0  0  0  0  0  0  0  0  0  0
    7.6140   14.6691   25.6767 H   0  0  0  0  0  0  0  0  0  0  0  0
    9.5473   13.0010   25.5251 H   0  0  0  0  0  0  0  0  0  0  0  0
   11.9480   12.7204   23.9671 H   0  0  0  0  0  0  0  0  0  0  0  0
   13.1690   13.8542   22.1442 H   0  0  0  0  0  0  0  0  0  0  0  0
   12.3259   15.9111   21.1142 H   0  0  0  0  0  0  0  0  0  0  0  0
   10.2173   16.9657   21.8906 H   0  0  0  0  0  0  0  0  0  0  0  0
   11.4122   20.9535   27.0737 H   0  0  0  0  0  0  0  0  0  0  0  0
   11.6681   20.0497   28.6048 H   0  0  0  0  0  0  0  0  0  0  0  0
    8.9111   20.8306   27.6156 H   0  0  0  0  0  0  0  0  0  0  0  0
    8.3488   20.6329   30.0164 H   0  0  0  0  0  0  0  0  0  0  0  0
   10.0486   20.1784   30.3778 H   0  0  0  0  0  0  0  0  0  0  0  0
    9.0249   19.0988   29.3713 H   0  0  0  0  0  0  0  0  0  0  0  0
   10.3277   22.8663   27.7987 H   0  0  0  0  0  0  0  0  0  0  0  0
   10.7804   22.3927   29.4712 H   0  0  0  0  0  0  0  0  0  0  0  0
    9.0759   22.8085   29.0857 H   0  0  0  0  0  0  0  0  0  0  0  0
  1  2  1  0  0  0  0
  1 29  1  0  0  0  0
  2  3  1  0  0  0  0
  2 30  1  0  0  0  0
  3  4  2  0  0  0  0
  3  5  1  0  0  0  0
  5  6  1  0  0  0  0
  5 31  1  0  0  0  0
  5 32  1  0  0  0  0
  6  7  1  0  0  0  0
  6 25  1  0  0  0  0
  6 33  1  1  0  0  0
  7  8  2  0  0  0  0
  7  9  1  0  0  0  0
  9 10  1  0  0  0  0
  9 34  1  0  0  0  0
 10 11  1  0  0  0  0
 10 15  1  0  0  0  0
 10 35  1  6  0  0  0
 11 12  2  0  0  0  0
 11 13  1  0  0  0  0
 13 14  1  0  0  0  0
 13 36  1  0  0  0  0
 14 37  1  0  0  0  0
 14 38  1  0  0  0  0
 14 39  1  0  0  0  0
 15 16  1  0  0  0  0
 15 40  1  0  0  0  0
 15 41  1  0  0  0  0
 16 17  2  0  0  0  0
 16 24  1  0  0  0  0
 17 18  1  0  0  0  0
 17 42  1  0  0  0  0
 18 19  1  0  0  0  0
 18 43  1  0  0  0  0
 19 20  2  0  0  0  0
 19 24  1  0  0  0  0
 20 21  1  0  0  0  0
 20 44  1  0  0  0  0
 21 22  2  0  0  0  0
 21 45  1  0  0  0  0
 22 23  1  0  0  0  0
 22 46  1  0  0  0  0
 23 24  2  0  0  0  0
 23 47  1  0  0  0  0
 25 26  1  0  0  0  0
 25 48  1  0  0  0  0
 25 49  1  0  0  0  0
 26 27  1  0  0  0  0
 26 28  1  0  0  0  0
 26 50  1  0  0  0  0
 27 51  1  0  0  0  0
 27 52  1  0  0  0  0
 27 53  1  0  0  0  0
 28 54  1  0  0  0  0
 28 55  1  0  0  0  0
 28 56  1  0  0  0  0
M  END
