4pl0_ligand
 OpenBabel08222323353D

 44 46  0  0  1  0  0  0  0  0999 V2000
  -29.5350  -24.7030   11.1780 P   0  0  0  0  0  0  0  0  0  0  0  0
  -29.8540  -24.0840    9.7670 O   0  0  0  0  0  1  0  0  0  0  0  0
  -30.0150  -23.4750   12.0240 O   0  0  0  0  0  1  0  0  0  0  0  0
  -28.0850  -25.0840   11.2310 O   0  0  0  0  0  0  0  0  0  0  0  0
  -30.2650  -27.4770   11.8650 P   0  0  1  0  0  0  0  0  0  0  0  0
  -31.3260  -28.3420   11.0760 O   0  0  0  0  0  1  0  0  0  0  0  0
  -28.8590  -27.8920   11.6970 O   0  0  0  0  0  0  0  0  0  0  0  0
  -30.5980  -25.9060   11.5300 N   0  0  0  0  0  0  0  0  0  0  0  0
  -30.4420  -28.2350   14.7470 P   0  0  1  0  0  0  0  0  0  0  0  0
  -29.6900  -29.5790   14.6800 O   0  0  0  0  0  1  0  0  0  0  0  0
  -29.7160  -27.1060   15.3820 O   0  0  0  0  0  0  0  0  0  0  0  0
  -30.7450  -27.8570   13.2770 O   0  0  0  0  0  0  0  0  0  0  0  0
  -31.8530  -28.6440   15.4150 O   0  0  0  0  0  0  0  0  0  0  0  0
  -32.7970  -29.5710   14.8470 C   0  0  0  0  0  0  0  0  0  0  0  0
  -34.0830  -29.5480   15.6450 C   0  0  1  0  0  0  0  0  0  0  0  0
  -33.8200  -29.8250   17.0370 O   0  0  0  0  0  0  0  0  0  0  0  0
  -34.9130  -28.2640   15.6160 C   0  0  1  0  0  0  0  0  0  0  0  0
  -36.3070  -28.5550   15.5860 O   0  0  0  0  0  0  0  0  0  0  0  0
  -34.5040  -27.5610   16.9130 C   0  0  1  0  0  0  0  0  0  0  0  0
  -35.5200  -26.7100   17.4270 O   0  0  0  0  0  0  0  0  0  0  0  0
  -34.2470  -28.7440   17.8490 C   0  0  2  0  0  0  0  0  0  0  0  0
  -33.2190  -28.4880   18.8560 N   0  0  0  0  0  0  0  0  0  0  0  0
  -31.9130  -28.1290   18.6360 C   0  0  0  0  0  0  0  0  0  0  0  0
  -31.2110  -27.9670   19.7320 N   0  0  0  0  0  0  0  0  0  0  0  0
  -32.1190  -28.2320   20.7460 C   0  0  0  0  0  0  0  0  0  0  0  0
  -32.0070  -28.2100   22.1500 C   0  0  0  0  0  0  0  0  0  0  0  0
  -30.8630  -27.9620   22.7950 N   0  0  0  0  0  0  0  0  0  0  0  0
  -33.1160  -28.4890   22.8780 N   0  0  0  0  0  0  0  0  0  0  0  0
  -34.2520  -28.7860   22.2320 C   0  0  0  0  0  0  0  0  0  0  0  0
  -34.4750  -28.8500   20.9150 N   0  0  0  0  0  0  0  0  0  0  0  0
  -33.3610  -28.5550   20.2210 C   0  0  0  0  0  0  0  0  0  0  0  0
  -31.5644  -25.6493   11.5413 H   0  0  0  0  0  0  0  0  0  0  0  0
  -32.3715  -30.5851   14.8696 H   0  0  0  0  0  0  0  0  0  0  0  0
  -33.0082  -29.2851   13.8060 H   0  0  0  0  0  0  0  0  0  0  0  0
  -34.7141  -30.3524   15.2393 H   0  0  0  0  0  0  0  0  0  0  0  0
  -34.6541  -27.6490   14.7415 H   0  0  0  0  0  0  0  0  0  0  0  0
  -36.7987  -27.7423   15.5684 H   0  0  0  0  0  0  0  0  0  0  0  0
  -33.5881  -26.9707   16.7623 H   0  0  0  0  0  0  0  0  0  0  0  0
  -35.7238  -26.0390   16.7860 H   0  0  0  0  0  0  0  0  0  0  0  0
  -35.1847  -29.0045   18.3618 H   0  0  0  0  0  0  0  0  0  0  0  0
  -31.4962  -27.9908   17.6394 H   0  0  0  0  0  0  0  0  0  0  0  0
  -30.8425  -27.9593   23.8248 H   0  0  0  0  0  0  0  0  0  0  0  0
  -30.0018  -27.7736   22.2623 H   0  0  0  0  0  0  0  0  0  0  0  0
  -35.1062  -29.0040   22.8628 H   0  0  0  0  0  0  0  0  0  0  0  0
  1  2  1  0  0  0  0
  1  3  1  0  0  0  0
  1  4  2  0  0  0  0
  5  6  1  6  0  0  0
  5  7  2  0  0  0  0
  5  8  1  0  0  0  0
  8  1  1  0  0  0  0
  8 32  1  0  0  0  0
  9 10  1  1  0  0  0
  9 11  2  0  0  0  0
  9 12  1  0  0  0  0
  9 13  1  0  0  0  0
 12  5  1  0  0  0  0
 13 14  1  0  0  0  0
 14 15  1  0  0  0  0
 14 33  1  0  0  0  0
 14 34  1  0  0  0  0
 15 16  1  0  0  0  0
 15 17  1  0  0  0  0
 15 35  1  6  0  0  0
 16 21  1  0  0  0  0
 17 18  1  0  0  0  0
 17 19  1  0  0  0  0
 17 36  1  6  0  0  0
 18 37  1  0  0  0  0
 19 20  1  0  0  0  0
 19 21  1  0  0  0  0
 19 38  1  6  0  0  0
 20 39  1  0  0  0  0
 21 22  1  0  0  0  0
 21 40  1  1  0  0  0
 22 23  1  0  0  0  0
 22 31  1  0  0  0  0
 23 24  2  0  0  0  0
 23 41  1  0  0  0  0
 24 25  1  0  0  0  0
 25 26  2  0  0  0  0
 25 31  1  0  0  0  0
 26 27  1  0  0  0  0
 26 28  1  0  0  0  0
 27 42  1  0  0  0  0
 27 43  1  0  0  0  0
 28 29  2  0  0  0  0
 29 30  1  0  0  0  0
 29 44  1  0  0  0  0
 30 31  2  0  0  0  0
M  END
