4pm0_ligand
 OpenBabel08222323353D

 40 42  0  0  1  0  0  0  0  0999 V2000
  -44.5470   27.1740    0.4480 C   0  0  0  0  0  0  0  0  0  0  0  0
  -44.9700   24.6020    1.2970 C   0  0  1  0  0  3  0  0  0  0  0  0
  -43.7860   24.8990    0.5620 N   0  0  0  0  0  0  0  0  0  0  0  0
  -45.9510   25.5610    1.5850 N   0  0  0  0  0  0  0  0  0  0  0  0
  -45.7260   26.8630    1.1210 C   0  0  0  0  0  0  0  0  0  0  0  0
  -43.5590   26.1870    0.1720 C   0  0  1  0  0  0  0  0  0  0  0  0
  -44.5550   28.8640   -0.0220 S   0  0  0  0  0  0  0  0  0  0  0  0
  -46.5570   27.9450    1.3190 C   0  0  0  0  0  0  0  0  0  0  0  0
  -46.0460   29.1170    0.7520 C   0  0  0  0  0  0  0  0  0  0  0  0
  -45.1730   23.2480    1.7230 N   0  0  0  0  0  0  0  0  0  0  0  0
  -47.8600   27.8540    2.0800 C   0  0  0  0  0  0  0  0  0  0  0  0
  -48.9550   27.8320    2.6950 C   0  0  0  0  0  0  0  0  0  0  0  0
  -42.4160   26.4410   -0.5120 O   0  0  0  0  0  0  0  0  0  0  0  0
  -42.8060   23.8300    0.3100 C   0  0  0  0  0  0  0  0  0  0  0  0
  -46.4690   22.9270    2.3500 C   0  0  0  0  0  0  0  0  0  0  0  0
  -47.4530   22.4790    1.3130 C   0  0  0  0  0  0  0  0  0  0  0  0
  -46.3400   21.7800    3.3090 C   0  0  0  0  0  0  0  0  0  0  0  0
  -41.9320   23.6900    1.5210 C   0  0  0  0  0  0  0  0  0  0  0  0
  -47.7020   21.1330    3.2770 C   0  0  0  0  0  0  0  0  0  0  0  0
  -48.4790   21.7810    2.1800 C   0  0  0  0  0  0  0  0  0  0  0  0
  -46.8004   25.3186    2.1148 H   0  0  0  0  0  0  0  0  0  0  0  0
  -43.0550   26.4173    1.1222 H   0  0  0  0  0  0  0  0  0  0  0  0
  -46.5472   30.0826    0.8011 H   0  0  0  0  0  0  0  0  0  0  0  0
  -44.4451   22.5303    1.5966 H   0  0  0  0  0  0  0  0  0  0  0  0
  -49.8756   27.8135    3.2120 H   0  0  0  0  0  0  0  0  0  0  0  0
  -42.3745   27.3660   -0.7249 H   0  0  0  0  0  0  0  0  0  0  0  0
  -42.1903   24.0895   -0.5638 H   0  0  0  0  0  0  0  0  0  0  0  0
  -43.3313   22.8824    0.1201 H   0  0  0  0  0  0  0  0  0  0  0  0
  -46.8467   23.8171    2.8744 H   0  0  0  0  0  0  0  0  0  0  0  0
  -46.9942   21.7868    0.5916 H   0  0  0  0  0  0  0  0  0  0  0  0
  -47.8910   23.3325    0.7748 H   0  0  0  0  0  0  0  0  0  0  0  0
  -46.1001   22.1394    4.3206 H   0  0  0  0  0  0  0  0  0  0  0  0
  -45.5633   21.0758    2.9762 H   0  0  0  0  0  0  0  0  0  0  0  0
  -41.1925   22.8939    1.3494 H   0  0  0  0  0  0  0  0  0  0  0  0
  -42.5517   23.4331    2.3928 H   0  0  0  0  0  0  0  0  0  0  0  0
  -41.4108   24.6403    1.7089 H   0  0  0  0  0  0  0  0  0  0  0  0
  -48.2127   21.2844    4.2394 H   0  0  0  0  0  0  0  0  0  0  0  0
  -47.6017   20.0553    3.0806 H   0  0  0  0  0  0  0  0  0  0  0  0
  -49.0240   21.0243    1.5966 H   0  0  0  0  0  0  0  0  0  0  0  0
  -49.1923   22.5094    2.5930 H   0  0  0  0  0  0  0  0  0  0  0  0
  1  5  2  0  0  0  0
  1  7  1  0  0  0  0
  2  4  1  0  0  0  0
  2 10  1  6  0  0  0
  3  2  1  0  0  0  0
  3  6  1  0  0  0  0
  3 14  1  0  0  0  0
  4  5  1  0  0  0  0
  4 21  1  0  0  0  0
  5  8  1  0  0  0  0
  6  1  1  0  0  0  0
  6 13  1  0  0  0  0
  6 22  1  1  0  0  0
  7  9  1  0  0  0  0
  8  9  2  0  0  0  0
  8 11  1  0  0  0  0
  9 23  1  0  0  0  0
 10 15  1  0  0  0  0
 10 24  1  0  0  0  0
 11 12  3  0  0  0  0
 12 25  1  0  0  0  0
 13 26  1  0  0  0  0
 14 18  1  0  0  0  0
 14 27  1  0  0  0  0
 14 28  1  0  0  0  0
 15 16  1  0  0  0  0
 15 17  1  0  0  0  0
 15 29  1  0  0  0  0
 16 20  1  0  0  0  0
 16 30  1  0  0  0  0
 16 31  1  0  0  0  0
 17 19  1  0  0  0  0
 17 32  1  0  0  0  0
 17 33  1  0  0  0  0
 18 34  1  0  0  0  0
 18 35  1  0  0  0  0
 18 36  1  0  0  0  0
 19 20  1  0  0  0  0
 19 37  1  0  0  0  0
 19 38  1  0  0  0  0
 20 39  1  0  0  0  0
 20 40  1  0  0  0  0
M  END
