4pml_ligand
 OpenBabel08222323353D

 18 18  0  0  0  0  0  0  0  0999 V2000
   27.3970   49.0010    0.7630 N   0  0  0  0  0  0  0  0  0  0  0  0
   26.1730   49.3540    0.3560 C   0  0  0  0  0  0  0  0  0  0  0  0
   25.3920   48.4730   -0.4100 C   0  0  0  0  0  0  0  0  0  0  0  0
   25.6650   50.6060    0.7180 C   0  0  0  0  0  0  0  0  0  0  0  0
   24.3870   50.9940    0.3040 C   0  0  0  0  0  0  0  0  0  0  0  0
   23.6120   50.1130   -0.4600 C   0  0  0  0  0  0  0  0  0  0  0  0
   24.1050   48.8570   -0.8330 C   0  0  0  0  0  0  0  0  0  0  0  0
   23.2190   47.9290   -1.6900 C   0  0  0  0  0  0  0  0  0  0  0  0
   22.3520   48.3930   -2.4370 O   0  0  0  0  0  0  0  0  0  0  0  0
   23.4220   46.6200   -1.5440 N   0  0  0  0  0  0  0  0  0  0  0  0
   27.7812   48.0815    0.5024 H   0  0  0  0  0  0  0  0  0  0  0  0
   27.9555   49.6486    1.3371 H   0  0  0  0  0  0  0  0  0  0  0  0
   25.7804   47.4965   -0.6758 H   0  0  0  0  0  0  0  0  0  0  0  0
   26.2643   51.2779    1.3217 H   0  0  0  0  0  0  0  0  0  0  0  0
   23.9990   51.9699    0.5726 H   0  0  0  0  0  0  0  0  0  0  0  0
   22.6152   50.4080   -0.7673 H   0  0  0  0  0  0  0  0  0  0  0  0
   22.8785   45.9677   -2.0724 H   0  0  0  0  0  0  0  0  0  0  0  0
   24.1178   46.2900   -0.9060 H   0  0  0  0  0  0  0  0  0  0  0  0
  1  2  1  0  0  0  0
  1 11  1  0  0  0  0
  1 12  1  0  0  0  0
  2  3  2  0  0  0  0
  2  4  1  0  0  0  0
  3  7  1  0  0  0  0
  3 13  1  0  0  0  0
  4  5  2  0  0  0  0
  4 14  1  0  0  0  0
  5  6  1  0  0  0  0
  5 15  1  0  0  0  0
  6  7  2  0  0  0  0
  6 16  1  0  0  0  0
  7  8  1  0  0  0  0
  8  9  2  0  0  0  0
  8 10  1  0  0  0  0
 10 17  1  0  0  0  0
 10 18  1  0  0  0  0
M  END
