4pnn_ligand
 OpenBabel08222323353D

 17 18  0  0  0  0  0  0  0  0999 V2000
   24.4550   51.2100   -0.1500 C   0  0  0  0  0  0  0  0  0  0  0  0
   25.6920   50.6950    0.4820 C   0  0  0  0  0  0  0  0  0  0  0  0
   23.6250   50.3730   -0.9160 C   0  0  0  0  0  0  0  0  0  0  0  0
   26.0050   49.3370    0.4020 C   0  0  0  0  0  0  0  0  0  0  0  0
   24.4760   46.2610   -0.9410 C   0  0  0  0  0  0  0  0  0  0  0  0
   23.9230   48.9760   -0.9810 C   0  0  0  0  0  0  0  0  0  0  0  0
   25.0820   48.4430   -0.3020 C   0  0  0  0  0  0  0  0  0  0  0  0
   23.0840   47.9590   -1.6840 C   0  0  0  0  0  0  0  0  0  0  0  0
   25.3670   47.0650   -0.3320 N   0  0  0  0  0  0  0  0  0  0  0  0
   23.3530   46.6440   -1.7050 N   0  0  0  0  0  0  0  0  0  0  0  0
   22.0400   48.3930   -2.3640 O   0  0  0  0  0  0  0  0  0  0  0  0
   24.1849   52.2516   -0.0193 H   0  0  0  0  0  0  0  0  0  0  0  0
   26.3547   51.3734    1.0071 H   0  0  0  0  0  0  0  0  0  0  0  0
   22.7731   50.7800   -1.4486 H   0  0  0  0  0  0  0  0  0  0  0  0
   26.9128   48.9515    0.8518 H   0  0  0  0  0  0  0  0  0  0  0  0
   24.6408   45.1901   -0.8315 H   0  0  0  0  0  0  0  0  0  0  0  0
   22.8017   45.9882   -2.2208 H   0  0  0  0  0  0  0  0  0  0  0  0
  1 12  1  0  0  0  0
  2  1  2  0  0  0  0
  2 13  1  0  0  0  0
  3  1  1  0  0  0  0
  3 14  1  0  0  0  0
  4  2  1  0  0  0  0
  4 15  1  0  0  0  0
  5 10  1  0  0  0  0
  5 16  1  0  0  0  0
  6  3  2  0  0  0  0
  6  8  1  0  0  0  0
  7  4  2  0  0  0  0
  7  6  1  0  0  0  0
  7  9  1  0  0  0  0
  8 10  1  0  0  0  0
  8 11  2  0  0  0  0
  9  5  2  0  0  0  0
 10 17  1  0  0  0  0
M  END
