4pnw_ligand
 OpenBabel08222323353D

 53 56  0  0  1  0  0  0  0  0999 V2000
   39.7770   11.9910   45.6490 C   0  0  0  0  0  0  0  0  0  0  0  0
   40.2510   13.3390   45.0850 C   0  0  0  0  0  0  0  0  0  0  0  0
   40.9220   14.0980   46.2220 C   0  0  1  0  0  0  0  0  0  0  0  0
   41.7640   15.2710   45.6620 C   0  0  0  0  0  0  0  0  0  0  0  0
   42.6790   14.9790   44.8560 O   0  5  0  0  0  0  0  0  0  0  0  0
   41.5100   16.4280   46.0670 O   0  0  0  0  0  0  0  0  0  0  0  0
   39.8440   14.5660   47.1600 C   0  0  0  0  0  0  0  0  0  0  0  0
   38.9690   13.4810   47.4490 C   0  0  0  0  0  0  0  0  0  0  0  0
   38.9230   12.3030   46.7580 C   0  0  0  0  0  0  0  0  0  0  0  0
   37.9710   11.5390   47.3230 C   0  0  0  0  0  0  0  0  0  0  0  0
   37.5370   10.2980   47.0280 C   0  0  0  0  0  0  0  0  0  0  0  0
   36.5160    9.7060   47.7680 C   0  0  0  0  0  0  0  0  0  0  0  0
   35.8170    7.9630   47.4370 Br  0  0  0  0  0  0  0  0  0  0  0  0
   35.9790   10.4270   48.8160 C   0  0  0  0  0  0  0  0  0  0  0  0
   36.4540   11.6970   49.0920 C   0  0  0  0  0  0  0  0  0  0  0  0
   37.4330   12.2280   48.3430 C   0  0  0  0  0  0  0  0  0  0  0  0
   38.0350   13.4170   48.4170 N   0  0  0  0  0  0  0  0  0  0  0  0
   37.6960   14.4810   49.4580 C   0  0  0  0  0  0  0  0  0  0  0  0
   36.9450   15.6790   48.8380 C   0  0  0  0  0  0  0  0  0  0  0  0
   37.1710   16.8200   49.2230 O   0  0  0  0  0  0  0  0  0  0  0  0
   36.0380   15.3900   47.8960 N   0  0  0  0  0  0  0  0  0  0  0  0
   35.2490   16.4140   47.1580 C   0  0  2  0  0  0  0  0  0  0  0  0
   33.9310   16.6400   47.8850 C   0  0  0  0  0  0  0  0  0  0  0  0
   33.2750   15.6290   48.2090 O   0  5  0  0  0  0  0  0  0  0  0  0
   33.6270   17.8230   48.1230 O   0  0  0  0  0  0  0  0  0  0  0  0
   35.0380   15.8210   45.7870 C   0  0  0  0  0  0  0  0  0  0  0  0
   35.9380   16.1820   44.7770 C   0  0  0  0  0  0  0  0  0  0  0  0
   37.2490   16.5760   45.0790 C   0  0  0  0  0  0  0  0  0  0  0  0
   38.1570   16.8640   44.0680 C   0  0  0  0  0  0  0  0  0  0  0  0
   37.7650   16.7300   42.7440 C   0  0  0  0  0  0  0  0  0  0  0  0
   36.4740   16.3100   42.4330 C   0  0  0  0  0  0  0  0  0  0  0  0
   35.5650   16.0210   43.4470 C   0  0  0  0  0  0  0  0  0  0  0  0
   40.6374   11.3941   45.9857 H   0  0  0  0  0  0  0  0  0  0  0  0
   39.2196   11.4314   44.8834 H   0  0  0  0  0  0  0  0  0  0  0  0
   39.3913   13.9115   44.7068 H   0  0  0  0  0  0  0  0  0  0  0  0
   40.9691   13.1733   44.2684 H   0  0  0  0  0  0  0  0  0  0  0  0
   41.5944   13.4176   46.7650 H   0  0  0  0  0  0  0  0  0  0  0  0
   39.2753   15.3813   46.6889 H   0  0  0  0  0  0  0  0  0  0  0  0
   40.3004   14.9286   48.0929 H   0  0  0  0  0  0  0  0  0  0  0  0
   37.9874    9.7541   46.2056 H   0  0  0  0  0  0  0  0  0  0  0  0
   35.1876    9.9993   49.4208 H   0  0  0  0  0  0  0  0  0  0  0  0
   36.0345   12.2643   49.9150 H   0  0  0  0  0  0  0  0  0  0  0  0
   38.6299   14.8439   49.9119 H   0  0  0  0  0  0  0  0  0  0  0  0
   37.0624   14.0284   50.2349 H   0  0  0  0  0  0  0  0  0  0  0  0
   35.8812   14.4274   47.6749 H   0  0  0  0  0  0  0  0  0  0  0  0
   35.8003   17.3632   47.0866 H   0  0  0  0  0  0  0  0  0  0  0  0
   34.0327   16.1163   45.4523 H   0  0  0  0  0  0  0  0  0  0  0  0
   35.0830   14.7269   45.8916 H   0  0  0  0  0  0  0  0  0  0  0  0
   37.5582   16.6570   46.1148 H   0  0  0  0  0  0  0  0  0  0  0  0
   39.1618   17.1902   44.3111 H   0  0  0  0  0  0  0  0  0  0  0  0
   38.4664   16.9531   41.9482 H   0  0  0  0  0  0  0  0  0  0  0  0
   36.1755   16.2076   41.3960 H   0  0  0  0  0  0  0  0  0  0  0  0
   34.5690   15.6714   43.2005 H   0  0  0  0  0  0  0  0  0  0  0  0
  1  2  1  0  0  0  0
  1  9  1  0  0  0  0
  1 33  1  0  0  0  0
  1 34  1  0  0  0  0
  2  3  1  0  0  0  0
  2 35  1  0  0  0  0
  2 36  1  0  0  0  0
  3  4  1  0  0  0  0
  3  7  1  0  0  0  0
  3 37  1  1  0  0  0
  4  5  1  0  0  0  0
  4  6  2  0  0  0  0
  7  8  1  0  0  0  0
  7 38  1  0  0  0  0
  7 39  1  0  0  0  0
  8  9  2  0  0  0  0
  8 17  1  0  0  0  0
  9 10  1  0  0  0  0
 10 11  2  0  0  0  0
 10 16  1  0  0  0  0
 11 12  1  0  0  0  0
 11 40  1  0  0  0  0
 12 13  1  0  0  0  0
 12 14  2  0  0  0  0
 14 15  1  0  0  0  0
 14 41  1  0  0  0  0
 15 16  2  0  0  0  0
 15 42  1  0  0  0  0
 16 17  1  0  0  0  0
 17 18  1  0  0  0  0
 18 19  1  0  0  0  0
 18 43  1  0  0  0  0
 18 44  1  0  0  0  0
 19 20  2  0  0  0  0
 19 21  1  0  0  0  0
 21 22  1  0  0  0  0
 21 45  1  0  0  0  0
 22 23  1  0  0  0  0
 22 26  1  0  0  0  0
 22 46  1  6  0  0  0
 23 24  1  0  0  0  0
 23 25  2  0  0  0  0
 26 27  1  0  0  0  0
 26 47  1  0  0  0  0
 26 48  1  0  0  0  0
 27 28  2  0  0  0  0
 27 32  1  0  0  0  0
 28 29  1  0  0  0  0
 28 49  1  0  0  0  0
 29 30  2  0  0  0  0
 29 50  1  0  0  0  0
 30 31  1  0  0  0  0
 30 51  1  0  0  0  0
 31 32  2  0  0  0  0
 31 52  1  0  0  0  0
 32 53  1  0  0  0  0
M  CHG  2   5  -1  24  -1
M  END
