4po7_ligand
 OpenBabel08222323353D

160162  0  0  1  0  0  0  0  0999 V2000
  -28.8340   -7.3890   41.0390 N   0  0  0  0  0  0  0  0  0  0  0  0
  -28.6840   -6.5540   39.8500 C   0  0  1  0  0  0  0  0  0  0  0  0
  -29.9560   -5.7490   39.5990 C   0  0  0  0  0  0  0  0  0  0  0  0
  -30.7830   -5.8360   40.8690 C   0  0  0  0  0  0  0  0  0  0  0  0
  -30.0930   -6.9330   41.6340 C   0  0  0  0  0  0  0  0  0  0  0  0
  -30.5740   -7.4020   42.6660 O   0  0  0  0  0  0  0  0  0  0  0  0
  -27.5230   -5.5790   39.9860 C   0  0  0  0  0  0  0  0  0  0  0  0
  -27.4340   -4.8490   40.9740 O   0  0  0  0  0  0  0  0  0  0  0  0
  -26.6330   -5.5700   38.9990 N   0  0  0  0  0  0  0  0  0  0  0  0
  -25.5400   -4.6070   38.9780 C   0  0  2  0  0  0  0  0  0  0  0  0
  -25.4580   -3.8800   37.6420 C   0  0  0  0  0  0  0  0  0  0  0  0
  -26.0320   -4.3210   36.6510 O   0  0  0  0  0  0  0  0  0  0  0  0
  -24.2030   -5.2860   39.2890 C   0  0  0  0  0  0  0  0  0  0  0  0
  -23.8710   -6.7040   38.8140 C   0  0  0  0  0  0  0  0  0  0  0  0
  -24.1270   -6.9190   37.3290 C   0  0  0  0  0  0  0  0  0  0  0  0
  -22.4160   -6.9880   39.1380 C   0  0  0  0  0  0  0  0  0  0  0  0
  -24.7380   -2.7640   37.6290 N   0  0  0  0  0  0  0  0  0  0  0  0
  -24.5280   -1.9920   36.4100 C   0  0  2  0  0  0  0  0  0  0  0  0
  -23.0390   -1.8500   36.1040 C   0  0  0  0  0  0  0  0  0  0  0  0
  -22.3890   -0.9180   36.5760 O   0  0  0  0  0  0  0  0  0  0  0  0
  -25.1570   -0.6000   36.5290 C   0  0  0  0  0  0  0  0  0  0  0  0
  -26.6560   -0.5860   36.7310 C   0  0  0  0  0  0  0  0  0  0  0  0
  -27.4740   -1.5120   36.0950 C   0  0  0  0  0  0  0  0  0  0  0  0
  -27.2540    0.3600   37.5560 C   0  0  0  0  0  0  0  0  0  0  0  0
  -28.8480   -1.4950   36.2750 C   0  0  0  0  0  0  0  0  0  0  0  0
  -28.6250    0.3830   37.7450 C   0  0  0  0  0  0  0  0  0  0  0  0
  -29.4170   -0.5470   37.1020 C   0  0  0  0  0  0  0  0  0  0  0  0
  -30.7810   -0.5270   37.2880 O   0  0  0  0  0  0  0  0  0  0  0  0
  -22.4940   -2.7720   35.3190 N   0  0  0  0  0  0  0  0  0  0  0  0
  -21.1010   -2.6620   34.9030 C   0  0  2  0  0  0  0  0  0  0  0  0
  -20.9720   -1.5750   33.8330 C   0  0  0  0  0  0  0  0  0  0  0  0
  -21.1670   -1.8340   32.6430 O   0  0  0  0  0  0  0  0  0  0  0  0
  -20.5850   -4.0100   34.3970 C   0  0  0  0  0  0  0  0  0  0  0  0
  -20.5100   -5.0670   35.4910 C   0  0  0  0  0  0  0  0  0  0  0  0
  -20.7290   -6.4770   34.9750 C   0  0  0  0  0  0  0  0  0  0  0  0
  -20.7340   -6.6690   33.7410 O   0  5  0  0  0  0  0  0  0  0  0  0
  -20.9050   -7.3930   35.8090 O   0  0  0  0  0  0  0  0  0  0  0  0
  -20.6510   -0.3600   34.2810 N   0  0  0  0  0  0  0  0  0  0  0  0
  -20.6050    0.8290   33.4270 C   0  0  2  0  0  0  0  0  0  0  0  0
  -21.8630    0.9940   32.5780 C   0  0  0  0  0  0  0  0  0  0  0  0
  -21.7890    1.0820   31.3530 O   0  0  0  0  0  0  0  0  0  0  0  0
  -19.3700    0.8010   32.5220 C   0  0  0  0  0  0  0  0  0  0  0  0
  -18.0850    1.1020   33.2740 C   0  0  0  0  0  0  0  0  0  0  0  0
  -17.3520    0.1910   33.6630 O   0  0  0  0  0  0  0  0  0  0  0  0
  -17.8040    2.3860   33.4820 N   0  0  0  0  0  0  0  0  0  0  0  0
  -26.7100    3.6400   19.0660 N   0  3  0  0  0  0  0  0  0  0  0  0
  -26.9390    4.3430   17.8010 C   0  0  2  0  0  0  0  0  0  0  0  0
  -27.5880    5.7160   17.9790 C   0  0  0  0  0  0  0  0  0  0  0  0
  -28.5780    5.8440   18.7010 O   0  0  0  0  0  0  0  0  0  0  0  0
  -27.8740    3.3930   17.0500 C   0  0  0  0  0  0  0  0  0  0  0  0
  -27.4760    2.0470   17.5300 C   0  0  0  0  0  0  0  0  0  0  0  0
  -27.1140    2.2250   18.9850 C   0  0  0  0  0  0  0  0  0  0  0  0
  -27.0170    6.7280   17.3300 N   0  0  0  0  0  0  0  0  0  0  0  0
  -27.5980    8.0660   17.3090 C   0  0  2  0  0  0  0  0  0  0  0  0
  -28.9260    8.0630   16.5730 C   0  0  0  0  0  0  0  0  0  0  0  0
  -29.0430    7.4780   15.4960 O   0  0  0  0  0  0  0  0  0  0  0  0
  -26.6530    9.0640   16.6380 C   0  0  0  0  0  0  0  0  0  0  0  0
  -25.7050    9.7660   17.5770 C   0  0  0  0  0  0  0  0  0  0  0  0
  -26.0690   10.0440   18.8860 C   0  0  0  0  0  0  0  0  0  0  0  0
  -24.4430   10.1590   17.1480 C   0  0  0  0  0  0  0  0  0  0  0  0
  -25.1970   10.6930   19.7450 C   0  0  0  0  0  0  0  0  0  0  0  0
  -23.5650   10.8070   17.9970 C   0  0  0  0  0  0  0  0  0  0  0  0
  -23.9450   11.0720   19.2930 C   0  0  0  0  0  0  0  0  0  0  0  0
  -23.0670   11.7160   20.1380 O   0  0  0  0  0  0  0  0  0  0  0  0
  -29.9190    8.7270   17.1530 N   0  0  0  0  0  0  0  0  0  0  0  0
  -31.2240    8.8590   16.5260 C   0  0  2  0  0  0  0  0  0  0  0  0
  -31.4080   10.2740   15.9940 C   0  0  0  0  0  0  0  0  0  0  0  0
  -31.1870   11.2510   16.7110 O   0  0  0  0  0  0  0  0  0  0  0  0
  -32.3580    8.5200   17.5100 C   0  0  2  0  0  0  0  0  0  0  0  0
  -32.1680    7.1100   18.0650 C   0  0  0  0  0  0  0  0  0  0  0  0
  -33.7140    8.6360   16.8380 C   0  0  0  0  0  0  0  0  0  0  0  0
  -32.2320    6.0310   17.0170 C   0  0  0  0  0  0  0  0  0  0  0  0
  -31.8020   10.3690   14.7290 N   0  0  0  0  0  0  0  0  0  0  0  0
  -32.0360   11.6500   14.0720 C   0  0  2  0  0  0  0  0  0  0  0  0
  -33.4580   11.7580   13.5340 C   0  0  0  0  0  0  0  0  0  0  0  0
  -33.9320   12.8510   13.2230 O   0  5  0  0  0  0  0  0  0  0  0  0
  -31.0430   11.8490   12.9280 C   0  0  0  0  0  0  0  0  0  0  0  0
  -29.5800   11.8570   13.3460 C   0  0  0  0  0  0  0  0  0  0  0  0
  -28.7180   12.2270   12.1730 C   0  0  0  0  0  0  0  0  0  0  0  0
  -29.3940   12.8380   14.4780 C   0  0  0  0  0  0  0  0  0  0  0  0
  -34.1570   10.7560   13.3840 O   0  0  0  0  0  0  0  0  0  0  0  0
  -28.2200   -8.1055   41.3701 H   0  0  0  0  0  0  0  0  0  0  0  0
  -28.4972   -7.2099   38.9870 H   0  0  0  0  0  0  0  0  0  0  0  0
  -30.5143   -6.1758   38.7528 H   0  0  0  0  0  0  0  0  0  0  0  0
  -29.7047   -4.7005   39.3811 H   0  0  0  0  0  0  0  0  0  0  0  0
  -31.8266   -6.1029   40.6461 H   0  0  0  0  0  0  0  0  0  0  0  0
  -30.7579   -4.8874   41.4252 H   0  0  0  0  0  0  0  0  0  0  0  0
  -26.7150   -6.2361   38.2576 H   0  0  0  0  0  0  0  0  0  0  0  0
  -25.7347   -3.8593   39.7610 H   0  0  0  0  0  0  0  0  0  0  0  0
  -24.1164   -5.3029   40.3854 H   0  0  0  0  0  0  0  0  0  0  0  0
  -23.4236   -4.6329   38.8696 H   0  0  0  0  0  0  0  0  0  0  0  0
  -24.5040   -7.4102   39.3714 H   0  0  0  0  0  0  0  0  0  0  0  0
  -23.8684   -7.9533   37.0584 H   0  0  0  0  0  0  0  0  0  0  0  0
  -23.5080   -6.2217   36.7455 H   0  0  0  0  0  0  0  0  0  0  0  0
  -25.1896   -6.7375   37.1100 H   0  0  0  0  0  0  0  0  0  0  0  0
  -22.2420   -6.8298   40.2126 H   0  0  0  0  0  0  0  0  0  0  0  0
  -21.7722   -6.3099   38.5586 H   0  0  0  0  0  0  0  0  0  0  0  0
  -22.1790   -8.0302   38.8778 H   0  0  0  0  0  0  0  0  0  0  0  0
  -24.3269   -2.4430   38.4822 H   0  0  0  0  0  0  0  0  0  0  0  0
  -25.0088   -2.5247   35.5763 H   0  0  0  0  0  0  0  0  0  0  0  0
  -24.9328   -0.0452   35.6060 H   0  0  0  0  0  0  0  0  0  0  0  0
  -24.6934   -0.0891   37.3858 H   0  0  0  0  0  0  0  0  0  0  0  0
  -27.0302   -2.2597   35.4476 H   0  0  0  0  0  0  0  0  0  0  0  0
  -26.6351    1.0931   38.0605 H   0  0  0  0  0  0  0  0  0  0  0  0
  -29.4728   -2.2222   35.7691 H   0  0  0  0  0  0  0  0  0  0  0  0
  -29.0739    1.1265   38.3937 H   0  0  0  0  0  0  0  0  0  0  0  0
  -31.1789   -1.2249   36.7810 H   0  0  0  0  0  0  0  0  0  0  0  0
  -23.0437   -3.5483   35.0106 H   0  0  0  0  0  0  0  0  0  0  0  0
  -20.4966   -2.3669   35.7734 H   0  0  0  0  0  0  0  0  0  0  0  0
  -19.5776   -3.8655   33.9796 H   0  0  0  0  0  0  0  0  0  0  0  0
  -21.2609   -4.3701   33.6074 H   0  0  0  0  0  0  0  0  0  0  0  0
  -21.2811   -4.8465   36.2439 H   0  0  0  0  0  0  0  0  0  0  0  0
  -19.5157   -5.0163   35.9587 H   0  0  0  0  0  0  0  0  0  0  0  0
  -20.4302   -0.2556   35.2507 H   0  0  0  0  0  0  0  0  0  0  0  0
  -20.5271    1.7070   34.0851 H   0  0  0  0  0  0  0  0  0  0  0  0
  -22.8375    1.0343   33.0624 H   0  0  0  0  0  0  0  0  0  0  0  0
  -19.4978    1.5525   31.7289 H   0  0  0  0  0  0  0  0  0  0  0  0
  -19.2874   -0.1985   32.0702 H   0  0  0  0  0  0  0  0  0  0  0  0
  -16.9708    2.6425   33.9718 H   0  0  0  0  0  0  0  0  0  0  0  0
  -18.4261    3.0944   33.1485 H   0  0  0  0  0  0  0  0  0  0  0  0
  -27.2446    4.0911   19.7917 H   0  0  0  0  0  0  0  0  0  0  0  0
  -25.7290    3.6870   19.2928 H   0  0  0  0  0  0  0  0  0  0  0  0
  -25.9908    4.4686   17.2577 H   0  0  0  0  0  0  0  0  0  0  0  0
  -27.7291    3.4794   15.9630 H   0  0  0  0  0  0  0  0  0  0  0  0
  -28.9253    3.6017   17.2976 H   0  0  0  0  0  0  0  0  0  0  0  0
  -26.6100    1.6772   16.9614 H   0  0  0  0  0  0  0  0  0  0  0  0
  -28.3120    1.3397   17.4262 H   0  0  0  0  0  0  0  0  0  0  0  0
  -27.9799    2.0252   19.6333 H   0  0  0  0  0  0  0  0  0  0  0  0
  -26.2833    1.5617   19.2679 H   0  0  0  0  0  0  0  0  0  0  0  0
  -26.1605    6.5657   16.8400 H   0  0  0  0  0  0  0  0  0  0  0  0
  -27.7697    8.3863   18.3472 H   0  0  0  0  0  0  0  0  0  0  0  0
  -27.2634    9.8277   16.1339 H   0  0  0  0  0  0  0  0  0  0  0  0
  -26.0553    8.5206   15.8913 H   0  0  0  0  0  0  0  0  0  0  0  0
  -27.0495    9.7494   19.2421 H   0  0  0  0  0  0  0  0  0  0  0  0
  -24.1409    9.9534   16.1274 H   0  0  0  0  0  0  0  0  0  0  0  0
  -25.4939   10.9029   20.7662 H   0  0  0  0  0  0  0  0  0  0  0  0
  -22.5840   11.1043   17.6443 H   0  0  0  0  0  0  0  0  0  0  0  0
  -23.4721   11.8253   20.9903 H   0  0  0  0  0  0  0  0  0  0  0  0
  -29.7647    9.1483   18.0467 H   0  0  0  0  0  0  0  0  0  0  0  0
  -31.2752    8.1559   15.6816 H   0  0  0  0  0  0  0  0  0  0  0  0
  -32.3203    9.2350   18.3450 H   0  0  0  0  0  0  0  0  0  0  0  0
  -32.9575    6.9200   18.8070 H   0  0  0  0  0  0  0  0  0  0  0  0
  -31.1844    7.0597   18.5549 H   0  0  0  0  0  0  0  0  0  0  0  0
  -33.8410    9.6543   16.4419 H   0  0  0  0  0  0  0  0  0  0  0  0
  -34.5061    8.4267   17.5720 H   0  0  0  0  0  0  0  0  0  0  0  0
  -33.7776    7.9112   16.0130 H   0  0  0  0  0  0  0  0  0  0  0  0
  -32.0871    5.0495   17.4920 H   0  0  0  0  0  0  0  0  0  0  0  0
  -31.4413    6.1974   16.2706 H   0  0  0  0  0  0  0  0  0  0  0  0
  -33.2143    6.0577   16.5227 H   0  0  0  0  0  0  0  0  0  0  0  0
  -31.9439    9.5285   14.2061 H   0  0  0  0  0  0  0  0  0  0  0  0
  -31.8840   12.4488   14.8128 H   0  0  0  0  0  0  0  0  0  0  0  0
  -31.2660   12.8118   12.4451 H   0  0  0  0  0  0  0  0  0  0  0  0
  -31.1874   11.0335   12.2040 H   0  0  0  0  0  0  0  0  0  0  0  0
  -29.2971   10.8521   13.6927 H   0  0  0  0  0  0  0  0  0  0  0  0
  -27.6620   12.2312   12.4809 H   0  0  0  0  0  0  0  0  0  0  0  0
  -28.9988   13.2277   11.8127 H   0  0  0  0  0  0  0  0  0  0  0  0
  -28.8618   11.4931   11.3663 H   0  0  0  0  0  0  0  0  0  0  0  0
  -30.0340   12.5472   15.3241 H   0  0  0  0  0  0  0  0  0  0  0  0
  -29.6714   13.8468   14.1383 H   0  0  0  0  0  0  0  0  0  0  0  0
  -28.3412   12.8349   14.7966 H   0  0  0  0  0  0  0  0  0  0  0  0
  1  2  1  0  0  0  0
  1  5  1  0  0  0  0
  1 82  1  0  0  0  0
  2  3  1  0  0  0  0
  2  7  1  0  0  0  0
  2 83  1  6  0  0  0
  3  4  1  0  0  0  0
  3 84  1  0  0  0  0
  3 85  1  0  0  0  0
  4  5  1  0  0  0  0
  4 86  1  0  0  0  0
  4 87  1  0  0  0  0
  5  6  2  0  0  0  0
  7  8  2  0  0  0  0
  7  9  1  0  0  0  0
  9 10  1  0  0  0  0
  9 88  1  0  0  0  0
 10 11  1  0  0  0  0
 10 13  1  0  0  0  0
 10 89  1  1  0  0  0
 11 12  2  0  0  0  0
 11 17  1  0  0  0  0
 13 14  1  0  0  0  0
 13 90  1  0  0  0  0
 13 91  1  0  0  0  0
 14 15  1  0  0  0  0
 14 16  1  0  0  0  0
 14 92  1  0  0  0  0
 15 93  1  0  0  0  0
 15 94  1  0  0  0  0
 15 95  1  0  0  0  0
 16 96  1  0  0  0  0
 16 97  1  0  0  0  0
 16 98  1  0  0  0  0
 17 18  1  0  0  0  0
 17 99  1  0  0  0  0
 18 19  1  0  0  0  0
 18 21  1  0  0  0  0
 18100  1  6  0  0  0
 19 20  2  0  0  0  0
 19 29  1  0  0  0  0
 21 22  1  0  0  0  0
 21101  1  0  0  0  0
 21102  1  0  0  0  0
 22 23  2  0  0  0  0
 22 24  1  0  0  0  0
 23 25  1  0  0  0  0
 23103  1  0  0  0  0
 24 26  2  0  0  0  0
 24104  1  0  0  0  0
 25 27  2  0  0  0  0
 25105  1  0  0  0  0
 26 27  1  0  0  0  0
 26106  1  0  0  0  0
 27 28  1  0  0  0  0
 28107  1  0  0  0  0
 29 30  1  0  0  0  0
 29108  1  0  0  0  0
 30 31  1  0  0  0  0
 30 33  1  0  0  0  0
 30109  1  1  0  0  0
 31 32  2  0  0  0  0
 31 38  1  0  0  0  0
 33 34  1  0  0  0  0
 33110  1  0  0  0  0
 33111  1  0  0  0  0
 34 35  1  0  0  0  0
 34112  1  0  0  0  0
 34113  1  0  0  0  0
 35 36  1  0  0  0  0
 35 37  2  0  0  0  0
 38 39  1  0  0  0  0
 38114  1  0  0  0  0
 39 40  1  0  0  0  0
 39 42  1  0  0  0  0
 39115  1  1  0  0  0
 40 41  2  0  0  0  0
 40116  1  0  0  0  0
 42 43  1  0  0  0  0
 42117  1  0  0  0  0
 42118  1  0  0  0  0
 43 44  2  0  0  0  0
 43 45  1  0  0  0  0
 45119  1  0  0  0  0
 45120  1  0  0  0  0
 46 47  1  0  0  0  0
 46 52  1  0  0  0  0
 46121  1  0  0  0  0
 46122  1  0  0  0  0
 47 48  1  0  0  0  0
 47 50  1  0  0  0  0
 47123  1  6  0  0  0
 48 49  2  0  0  0  0
 48 53  1  0  0  0  0
 50 51  1  0  0  0  0
 50124  1  0  0  0  0
 50125  1  0  0  0  0
 51 52  1  0  0  0  0
 51126  1  0  0  0  0
 51127  1  0  0  0  0
 52128  1  0  0  0  0
 52129  1  0  0  0  0
 53 54  1  0  0  0  0
 53130  1  0  0  0  0
 54 55  1  0  0  0  0
 54 57  1  0  0  0  0
 54131  1  1  0  0  0
 55 56  2  0  0  0  0
 55 65  1  0  0  0  0
 57 58  1  0  0  0  0
 57132  1  0  0  0  0
 57133  1  0  0  0  0
 58 59  2  0  0  0  0
 58 60  1  0  0  0  0
 59 61  1  0  0  0  0
 59134  1  0  0  0  0
 60 62  2  0  0  0  0
 60135  1  0  0  0  0
 61 63  2  0  0  0  0
 61136  1  0  0  0  0
 62 63  1  0  0  0  0
 62137  1  0  0  0  0
 63 64  1  0  0  0  0
 64138  1  0  0  0  0
 65 66  1  0  0  0  0
 65139  1  0  0  0  0
 66 67  1  0  0  0  0
 66 69  1  0  0  0  0
 66140  1  6  0  0  0
 67 68  2  0  0  0  0
 67 73  1  0  0  0  0
 69 70  1  0  0  0  0
 69 71  1  0  0  0  0
 69141  1  1  0  0  0
 70 72  1  0  0  0  0
 70142  1  0  0  0  0
 70143  1  0  0  0  0
 71144  1  0  0  0  0
 71145  1  0  0  0  0
 71146  1  0  0  0  0
 72147  1  0  0  0  0
 72148  1  0  0  0  0
 72149  1  0  0  0  0
 73 74  1  0  0  0  0
 73150  1  0  0  0  0
 74 75  1  0  0  0  0
 74 77  1  0  0  0  0
 74151  1  1  0  0  0
 75 76  1  0  0  0  0
 75 81  2  0  0  0  0
 77 78  1  0  0  0  0
 77152  1  0  0  0  0
 77153  1  0  0  0  0
 78 79  1  0  0  0  0
 78 80  1  0  0  0  0
 78154  1  0  0  0  0
 79155  1  0  0  0  0
 79156  1  0  0  0  0
 79157  1  0  0  0  0
 80158  1  0  0  0  0
 80159  1  0  0  0  0
 80160  1  0  0  0  0
M  CHG  3  36  -1  46   1  76  -1
M  END
