4pov_ligand
 OpenBabel08222323353D

 32 33  0  0  0  0  0  0  0  0999 V2000
   13.9450   14.5230   41.7640 C   0  0  0  0  0  0  0  0  0  0  0  0
   14.3000   10.4160   44.3050 N   0  0  0  0  0  0  0  0  0  0  0  0
   17.4620    9.8950   48.2600 C   0  0  0  0  0  0  0  0  0  0  0  0
   19.5860    8.0480   48.0880 O   0  0  0  0  0  0  0  0  0  0  0  0
   19.8030    8.1050   46.7220 C   0  0  0  0  0  0  0  0  0  0  0  0
   17.5960   10.7000   44.5490 C   0  0  0  0  0  0  0  0  0  0  0  0
   18.8550    9.5500   44.5600 S   0  0  0  0  0  0  0  0  0  0  0  0
   18.8410    9.1400   46.1650 C   0  0  0  0  0  0  0  0  0  0  0  0
   17.8290    9.9350   46.8000 C   0  0  0  0  0  0  0  0  0  0  0  0
   17.1410   10.8330   45.9000 C   0  0  0  0  0  0  0  0  0  0  0  0
   16.0170   11.7490   46.3540 C   0  0  0  0  0  0  0  0  0  0  0  0
   14.6330   11.7790   44.1820 C   0  0  0  0  0  0  0  0  0  0  0  0
   14.1790   12.4760   43.1190 N   0  0  0  0  0  0  0  0  0  0  0  0
   14.4790   13.7740   42.9780 C   0  0  0  0  0  0  0  0  0  0  0  0
   15.2290   14.4320   43.8650 N   0  0  0  0  0  0  0  0  0  0  0  0
   15.7420   13.8300   44.9440 C   0  0  0  0  0  0  0  0  0  0  0  0
   15.4440   12.4530   45.1370 C   0  0  0  0  0  0  0  0  0  0  0  0
   13.3518   13.8369   41.1416 H   0  0  0  0  0  0  0  0  0  0  0  0
   14.7874   14.9160   41.1758 H   0  0  0  0  0  0  0  0  0  0  0  0
   13.3101   15.3570   42.0977 H   0  0  0  0  0  0  0  0  0  0  0  0
   14.6404    9.8734   45.1116 H   0  0  0  0  0  0  0  0  0  0  0  0
   13.7161    9.9618   43.5883 H   0  0  0  0  0  0  0  0  0  0  0  0
   18.0917    9.1554   48.7762 H   0  0  0  0  0  0  0  0  0  0  0  0
   16.4041    9.6125   48.3646 H   0  0  0  0  0  0  0  0  0  0  0  0
   17.6223   10.8878   48.7057 H   0  0  0  0  0  0  0  0  0  0  0  0
   19.7517    8.9020   48.4697 H   0  0  0  0  0  0  0  0  0  0  0  0
   19.6073    7.1230   46.2666 H   0  0  0  0  0  0  0  0  0  0  0  0
   20.8413    8.4043   46.5161 H   0  0  0  0  0  0  0  0  0  0  0  0
   17.2114   11.2319   43.6800 H   0  0  0  0  0  0  0  0  0  0  0  0
   16.4091   12.4937   47.0623 H   0  0  0  0  0  0  0  0  0  0  0  0
   15.2304   11.1559   46.8434 H   0  0  0  0  0  0  0  0  0  0  0  0
   16.3634   14.3731   45.6469 H   0  0  0  0  0  0  0  0  0  0  0  0
  1 18  1  0  0  0  0
  1 19  1  0  0  0  0
  1 20  1  0  0  0  0
  2 21  1  0  0  0  0
  2 22  1  0  0  0  0
  3 23  1  0  0  0  0
  3 24  1  0  0  0  0
  3 25  1  0  0  0  0
  4 26  1  0  0  0  0
  5  4  1  0  0  0  0
  5 27  1  0  0  0  0
  5 28  1  0  0  0  0
  6  7  1  0  0  0  0
  6 29  1  0  0  0  0
  8  5  1  0  0  0  0
  8  7  1  0  0  0  0
  9  3  1  0  0  0  0
  9  8  2  0  0  0  0
 10  6  2  0  0  0  0
 10  9  1  0  0  0  0
 11 10  1  0  0  0  0
 11 30  1  0  0  0  0
 11 31  1  0  0  0  0
 12  2  1  0  0  0  0
 12 17  1  0  0  0  0
 13 12  2  0  0  0  0
 13 14  1  0  0  0  0
 14  1  1  0  0  0  0
 14 15  2  0  0  0  0
 15 16  1  0  0  0  0
 16 17  2  0  0  0  0
 16 32  1  0  0  0  0
 17 11  1  0  0  0  0
M  END
