4pp9_ligand
 OpenBabel08222323353D

 40 43  0  0  0  0  0  0  0  0999 V2000
  -10.9950    4.5260  -20.3510 C   0  0  0  0  0  0  0  0  0  0  0  0
  -10.6720    5.7610  -19.7690 C   0  0  0  0  0  0  0  0  0  0  0  0
  -10.4780    6.8830  -20.5470 C   0  0  0  0  0  0  0  0  0  0  0  0
  -10.6120    6.7860  -21.9410 C   0  0  0  0  0  0  0  0  0  0  0  0
  -10.9550    5.5330  -22.5330 C   0  0  0  0  0  0  0  0  0  0  0  0
  -11.1470    4.4050  -21.7150 C   0  0  0  0  0  0  0  0  0  0  0  0
  -11.0080    5.8140  -23.9800 C   0  0  0  0  0  0  0  0  0  0  0  0
  -10.7290    7.0970  -24.1060 N   0  0  0  0  0  0  0  0  0  0  0  0
  -10.4890    7.6720  -22.9800 N   0  0  0  0  0  0  0  0  0  0  0  0
  -11.3070    4.8630  -25.0760 C   0  0  0  0  0  0  0  0  0  0  0  0
  -11.7250    3.7520  -24.7870 O   0  0  0  0  0  0  0  0  0  0  0  0
  -11.1190    5.2330  -26.3760 N   0  0  0  0  0  0  0  0  0  0  0  0
  -11.3660    4.4100  -27.5100 C   0  0  0  0  0  0  0  0  0  0  0  0
  -11.7560    3.0590  -27.5150 C   0  0  0  0  0  0  0  0  0  0  0  0
  -11.8730    2.6490  -28.7480 N   0  0  0  0  0  0  0  0  0  0  0  0
  -11.5520    3.7080  -29.5950 N   0  0  0  0  0  0  0  0  0  0  0  0
  -11.2450    4.7840  -28.8150 C   0  0  0  0  0  0  0  0  0  0  0  0
  -11.5500    3.6400  -31.0560 C   0  0  0  0  0  0  0  0  0  0  0  0
  -12.8190    4.2520  -31.5640 C   0  0  0  0  0  0  0  0  0  0  0  0
  -13.9670    3.4740  -31.6800 C   0  0  0  0  0  0  0  0  0  0  0  0
  -15.1560    4.0450  -32.1280 C   0  0  0  0  0  0  0  0  0  0  0  0
  -15.1990    5.3960  -32.4530 C   0  0  0  0  0  0  0  0  0  0  0  0
  -14.0430    6.1850  -32.3360 C   0  0  0  0  0  0  0  0  0  0  0  0
  -12.8460    5.6050  -31.8830 C   0  0  0  0  0  0  0  0  0  0  0  0
  -14.0760    7.5750  -32.6770 C   0  0  0  0  0  0  0  0  0  0  0  0
  -14.0960    8.6790  -32.9460 N   0  0  0  0  0  0  0  0  0  0  0  0
  -11.1268    3.6552  -19.7190 H   0  0  0  0  0  0  0  0  0  0  0  0
  -10.5735    5.8344  -18.6920 H   0  0  0  0  0  0  0  0  0  0  0  0
  -10.2244    7.8310  -20.0864 H   0  0  0  0  0  0  0  0  0  0  0  0
  -11.4120    3.4497  -22.1535 H   0  0  0  0  0  0  0  0  0  0  0  0
  -10.2380    8.6653  -22.8736 H   0  0  0  0  0  0  0  0  0  0  0  0
  -10.7799    6.1583  -26.5455 H   0  0  0  0  0  0  0  0  0  0  0  0
  -11.9326    2.4507  -26.6291 H   0  0  0  0  0  0  0  0  0  0  0  0
  -10.9538    5.7705  -29.1728 H   0  0  0  0  0  0  0  0  0  0  0  0
  -11.4900    2.5900  -31.3781 H   0  0  0  0  0  0  0  0  0  0  0  0
  -10.6866    4.1949  -31.4517 H   0  0  0  0  0  0  0  0  0  0  0  0
  -13.9359    2.4218  -31.4213 H   0  0  0  0  0  0  0  0  0  0  0  0
  -16.0477    3.4359  -32.2232 H   0  0  0  0  0  0  0  0  0  0  0  0
  -16.1257    5.8409  -32.7971 H   0  0  0  0  0  0  0  0  0  0  0  0
  -11.9506    6.2077  -31.7830 H   0  0  0  0  0  0  0  0  0  0  0  0
  1  2  2  0  0  0  0
  1  6  1  0  0  0  0
  1 27  1  0  0  0  0
  2  3  1  0  0  0  0
  2 28  1  0  0  0  0
  3  4  2  0  0  0  0
  3 29  1  0  0  0  0
  4  5  1  0  0  0  0
  4  9  1  0  0  0  0
  5  6  2  0  0  0  0
  5  7  1  0  0  0  0
  6 30  1  0  0  0  0
  7  8  2  0  0  0  0
  7 10  1  0  0  0  0
  8  9  1  0  0  0  0
  9 31  1  0  0  0  0
 10 11  2  0  0  0  0
 10 12  1  0  0  0  0
 12 13  1  0  0  0  0
 12 32  1  0  0  0  0
 13 14  1  0  0  0  0
 13 17  2  0  0  0  0
 14 15  2  0  0  0  0
 14 33  1  0  0  0  0
 15 16  1  0  0  0  0
 16 17  1  0  0  0  0
 16 18  1  0  0  0  0
 17 34  1  0  0  0  0
 18 19  1  0  0  0  0
 18 35  1  0  0  0  0
 18 36  1  0  0  0  0
 19 20  2  0  0  0  0
 19 24  1  0  0  0  0
 20 21  1  0  0  0  0
 20 37  1  0  0  0  0
 21 22  2  0  0  0  0
 21 38  1  0  0  0  0
 22 23  1  0  0  0  0
 22 39  1  0  0  0  0
 23 24  2  0  0  0  0
 23 25  1  0  0  0  0
 24 40  1  0  0  0  0
 25 26  3  0  0  0  0
M  END
