4ppb_ligand
 OpenBabel08222323353D

 61 65  0  0  1  0  0  0  0  0999 V2000
   -7.8430  -24.0640   59.9670 C   0  0  0  0  0  0  0  0  0  0  0  0
   -8.3840  -23.5740   58.6880 N   0  3  0  0  0  0  0  0  0  0  0  0
   -7.6970  -22.3510   58.2450 C   0  0  0  0  0  0  0  0  0  0  0  0
   -8.3610  -24.5910   57.6270 C   0  0  0  0  0  0  0  0  0  0  0  0
   -9.7440  -25.2390   57.5290 C   0  0  0  0  0  0  0  0  0  0  0  0
  -10.3320  -25.2240   56.1060 C   0  0  1  0  0  0  0  0  0  0  0  0
  -10.2860  -26.6040   55.4650 C   0  0  0  0  0  0  0  0  0  0  0  0
   -9.8300  -26.7310   54.1540 C   0  0  0  0  0  0  0  0  0  0  0  0
   -9.8340  -27.9770   53.5220 C   0  0  0  0  0  0  0  0  0  0  0  0
  -10.3020  -29.1030   54.1930 C   0  0  0  0  0  0  0  0  0  0  0  0
  -10.7790  -28.9840   55.4970 C   0  0  0  0  0  0  0  0  0  0  0  0
  -10.7860  -27.7400   56.1200 C   0  0  0  0  0  0  0  0  0  0  0  0
  -11.7580  -24.8920   56.2200 N   0  0  0  0  0  0  0  0  0  0  0  0
  -12.5870  -24.4800   55.2280 C   0  0  0  0  0  0  0  0  0  0  0  0
  -13.8280  -24.3470   55.7660 C   0  0  0  0  0  0  0  0  0  0  0  0
  -13.7570  -24.7680   57.1010 C   0  0  0  0  0  0  0  0  0  0  0  0
  -12.5340  -25.0990   57.3680 N   0  0  0  0  0  0  0  0  0  0  0  0
  -14.9970  -23.9050   55.0960 N   0  0  0  0  0  0  0  0  0  0  0  0
  -16.2050  -23.7990   55.7110 C   0  0  0  0  0  0  0  0  0  0  0  0
  -16.3440  -24.1070   56.8910 O   0  0  0  0  0  0  0  0  0  0  0  0
  -17.3960  -23.3820   54.9440 C   0  0  0  0  0  0  0  0  0  0  0  0
  -18.7460  -23.1740   55.4950 C   0  0  0  0  0  0  0  0  0  0  0  0
  -19.3090  -23.2160   56.7760 C   0  0  0  0  0  0  0  0  0  0  0  0
  -20.6390  -22.9680   56.9500 C   0  0  0  0  0  0  0  0  0  0  0  0
  -21.4550  -22.6660   55.8440 C   0  0  0  0  0  0  0  0  0  0  0  0
  -20.8980  -22.5710   54.5570 C   0  0  0  0  0  0  0  0  0  0  0  0
  -19.5370  -22.8420   54.3700 C   0  0  0  0  0  0  0  0  0  0  0  0
  -18.6860  -22.8700   53.2900 N   0  0  0  0  0  0  0  0  0  0  0  0
  -17.4860  -23.1840   53.6430 N   0  0  0  0  0  0  0  0  0  0  0  0
  -22.8870  -22.3210   56.0770 C   0  0  0  0  0  0  0  0  0  0  0  0
  -23.6650  -22.7180   57.1240 C   0  0  0  0  0  0  0  0  0  0  0  0
  -24.8700  -22.1360   56.9790 N   0  0  0  0  0  0  0  0  0  0  0  0
  -24.8580  -21.3570   55.8220 N   0  0  0  0  0  0  0  0  0  0  0  0
  -23.6740  -21.4570   55.2830 C   0  0  0  0  0  0  0  0  0  0  0  0
   -7.8878  -23.2598   60.7162 H   0  0  0  0  0  0  0  0  0  0  0  0
   -6.7978  -24.3770   59.8272 H   0  0  0  0  0  0  0  0  0  0  0  0
   -8.4393  -24.9211   60.3131 H   0  0  0  0  0  0  0  0  0  0  0  0
   -9.3500  -23.3358   58.8498 H   0  0  0  0  0  0  0  0  0  0  0  0
   -8.1262  -22.0150   57.2895 H   0  0  0  0  0  0  0  0  0  0  0  0
   -6.6253  -22.5601   58.1122 H   0  0  0  0  0  0  0  0  0  0  0  0
   -7.8259  -21.5633   59.0019 H   0  0  0  0  0  0  0  0  0  0  0  0
   -7.6103  -25.3582   57.8675 H   0  0  0  0  0  0  0  0  0  0  0  0
   -8.1067  -24.1173   56.6673 H   0  0  0  0  0  0  0  0  0  0  0  0
  -10.4307  -24.6957   58.1948 H   0  0  0  0  0  0  0  0  0  0  0  0
   -9.6625  -26.2846   57.8606 H   0  0  0  0  0  0  0  0  0  0  0  0
   -9.7981  -24.4911   55.4833 H   0  0  0  0  0  0  0  0  0  0  0  0
   -9.4702  -25.8579   53.6217 H   0  0  0  0  0  0  0  0  0  0  0  0
   -9.4710  -28.0672   52.5046 H   0  0  0  0  0  0  0  0  0  0  0  0
  -10.2955  -30.0698   53.7027 H   0  0  0  0  0  0  0  0  0  0  0  0
  -11.1435  -29.8581   56.0244 H   0  0  0  0  0  0  0  0  0  0  0  0
  -11.1828  -27.6470   57.1245 H   0  0  0  0  0  0  0  0  0  0  0  0
  -12.3093  -24.2908   54.1921 H   0  0  0  0  0  0  0  0  0  0  0  0
  -14.5923  -24.8098   57.7984 H   0  0  0  0  0  0  0  0  0  0  0  0
  -14.9300  -23.6605   54.1287 H   0  0  0  0  0  0  0  0  0  0  0  0
  -18.6859  -23.4464   57.6326 H   0  0  0  0  0  0  0  0  0  0  0  0
  -21.0691  -23.0037   57.9444 H   0  0  0  0  0  0  0  0  0  0  0  0
  -21.5186  -22.2895   53.7139 H   0  0  0  0  0  0  0  0  0  0  0  0
  -18.9711  -22.6660   52.3215 H   0  0  0  0  0  0  0  0  0  0  0  0
  -23.3657  -23.3850   57.9312 H   0  0  0  0  0  0  0  0  0  0  0  0
  -25.6448  -20.8011   55.4575 H   0  0  0  0  0  0  0  0  0  0  0  0
  -23.3467  -20.9575   54.3724 H   0  0  0  0  0  0  0  0  0  0  0  0
  1  2  1  0  0  0  0
  1 35  1  0  0  0  0
  1 36  1  0  0  0  0
  1 37  1  0  0  0  0
  2  3  1  0  0  0  0
  2  4  1  0  0  0  0
  2 38  1  0  0  0  0
  3 39  1  0  0  0  0
  3 40  1  0  0  0  0
  3 41  1  0  0  0  0
  4  5  1  0  0  0  0
  4 42  1  0  0  0  0
  4 43  1  0  0  0  0
  5  6  1  0  0  0  0
  5 44  1  0  0  0  0
  5 45  1  0  0  0  0
  6  7  1  0  0  0  0
  6 13  1  0  0  0  0
  6 46  1  6  0  0  0
  7  8  2  0  0  0  0
  7 12  1  0  0  0  0
  8  9  1  0  0  0  0
  8 47  1  0  0  0  0
  9 10  2  0  0  0  0
  9 48  1  0  0  0  0
 10 11  1  0  0  0  0
 10 49  1  0  0  0  0
 11 12  2  0  0  0  0
 11 50  1  0  0  0  0
 12 51  1  0  0  0  0
 13 14  1  0  0  0  0
 13 17  1  0  0  0  0
 14 15  2  0  0  0  0
 14 52  1  0  0  0  0
 15 16  1  0  0  0  0
 15 18  1  0  0  0  0
 16 17  2  0  0  0  0
 16 53  1  0  0  0  0
 18 19  1  0  0  0  0
 18 54  1  0  0  0  0
 19 20  2  0  0  0  0
 19 21  1  0  0  0  0
 21 22  1  0  0  0  0
 21 29  2  0  0  0  0
 22 23  2  0  0  0  0
 22 27  1  0  0  0  0
 23 24  1  0  0  0  0
 23 55  1  0  0  0  0
 24 25  2  0  0  0  0
 24 56  1  0  0  0  0
 25 26  1  0  0  0  0
 25 30  1  0  0  0  0
 26 27  2  0  0  0  0
 26 57  1  0  0  0  0
 27 28  1  0  0  0  0
 28 29  1  0  0  0  0
 28 58  1  0  0  0  0
 30 31  1  0  0  0  0
 30 34  2  0  0  0  0
 31 32  2  0  0  0  0
 31 59  1  0  0  0  0
 32 33  1  0  0  0  0
 33 34  1  0  0  0  0
 33 60  1  0  0  0  0
 34 61  1  0  0  0  0
M  CHG  1   2   1
M  END
