4pqn_ligand
 OpenBabel08222323353D

 64 67  0  0  1  0  0  0  0  0999 V2000
  -14.6120   22.1410   33.1690 C   0  0  0  0  0  0  0  0  0  0  0  0
  -15.0530   21.9850   31.8420 C   0  0  0  0  0  0  0  0  0  0  0  0
  -14.3850   22.5940   30.8040 C   0  0  0  0  0  0  0  0  0  0  0  0
  -13.2030   23.2800   31.0650 C   0  0  0  0  0  0  0  0  0  0  0  0
  -12.7430   23.4280   32.3770 C   0  0  0  0  0  0  0  0  0  0  0  0
  -13.4640   22.8590   33.4320 C   0  0  0  0  0  0  0  0  0  0  0  0
  -14.8360   22.4380   29.3840 C   0  0  2  0  0  0  0  0  0  0  0  0
  -15.8750   23.4840   28.9660 C   0  0  0  0  0  0  0  0  0  0  0  0
  -16.0610   23.4440   27.4260 C   0  0  0  0  0  0  0  0  0  0  0  0
  -17.1260   24.3630   26.9830 N   0  3  0  0  0  0  0  0  0  0  0  0
  -17.4490   24.1670   25.5460 C   0  0  0  0  0  0  0  0  0  0  0  0
  -16.6960   25.7590   27.2080 C   0  0  0  0  0  0  0  0  0  0  0  0
  -15.2140   21.0050   29.1760 N   0  0  0  0  0  0  0  0  0  0  0  0
  -16.4980   20.5740   29.2870 N   0  0  0  0  0  0  0  0  0  0  0  0
  -16.4820   19.2400   29.0860 C   0  0  0  0  0  0  0  0  0  0  0  0
  -15.1630   18.8190   28.8820 C   0  0  0  0  0  0  0  0  0  0  0  0
  -14.4100   19.9640   28.9400 C   0  0  0  0  0  0  0  0  0  0  0  0
  -14.6460   17.5580   28.6340 N   0  0  0  0  0  0  0  0  0  0  0  0
  -15.2980   16.4110   28.6550 C   0  0  0  0  0  0  0  0  0  0  0  0
  -16.5070   16.3140   28.8320 O   0  0  0  0  0  0  0  0  0  0  0  0
  -14.4890   15.1670   28.5370 C   0  0  0  0  0  0  0  0  0  0  0  0
  -15.0580   13.8400   28.3950 C   0  0  0  0  0  0  0  0  0  0  0  0
  -13.9300   12.9450   28.3290 C   0  0  0  0  0  0  0  0  0  0  0  0
  -12.8430   13.7120   28.4780 N   0  0  0  0  0  0  0  0  0  0  0  0
  -13.1550   15.0530   28.6060 N   0  0  0  0  0  0  0  0  0  0  0  0
  -14.0500   11.4700   28.1630 C   0  0  0  0  0  0  0  0  0  0  0  0
  -15.4730   11.0070   28.4320 C   0  0  0  0  0  0  0  0  0  0  0  0
  -16.5150   11.9290   27.7810 C   0  0  0  0  0  0  0  0  0  0  0  0
  -16.4820   13.3720   28.2450 C   0  0  0  0  0  0  0  0  0  0  0  0
  -15.6200    9.6000   27.8900 C   0  0  0  0  0  0  0  0  0  0  0  0
  -15.7600   10.9770   29.9420 C   0  0  0  0  0  0  0  0  0  0  0  0
  -15.1735   21.6976   33.9834 H   0  0  0  0  0  0  0  0  0  0  0  0
  -15.9277   21.3791   31.6350 H   0  0  0  0  0  0  0  0  0  0  0  0
  -12.6343   23.7030   30.2448 H   0  0  0  0  0  0  0  0  0  0  0  0
  -11.8321   23.9810   32.5757 H   0  0  0  0  0  0  0  0  0  0  0  0
  -13.1216   22.9819   34.4531 H   0  0  0  0  0  0  0  0  0  0  0  0
  -13.9603   22.6240   28.7448 H   0  0  0  0  0  0  0  0  0  0  0  0
  -15.5299   24.4840   29.2675 H   0  0  0  0  0  0  0  0  0  0  0  0
  -16.8345   23.2638   29.4567 H   0  0  0  0  0  0  0  0  0  0  0  0
  -16.3257   22.4196   27.1250 H   0  0  0  0  0  0  0  0  0  0  0  0
  -15.1157   23.7350   26.9447 H   0  0  0  0  0  0  0  0  0  0  0  0
  -17.9550   24.1825   27.5272 H   0  0  0  0  0  0  0  0  0  0  0  0
  -18.2448   24.8666   25.2504 H   0  0  0  0  0  0  0  0  0  0  0  0
  -17.7904   23.1339   25.3845 H   0  0  0  0  0  0  0  0  0  0  0  0
  -16.5510   24.3555   24.9393 H   0  0  0  0  0  0  0  0  0  0  0  0
  -16.4574   25.9021   28.2722 H   0  0  0  0  0  0  0  0  0  0  0  0
  -17.5070   26.4436   26.9188 H   0  0  0  0  0  0  0  0  0  0  0  0
  -15.8036   25.9703   26.6005 H   0  0  0  0  0  0  0  0  0  0  0  0
  -17.3577   18.5926   29.0830 H   0  0  0  0  0  0  0  0  0  0  0  0
  -13.3296   20.0164   28.8139 H   0  0  0  0  0  0  0  0  0  0  0  0
  -13.6714   17.5119   28.4149 H   0  0  0  0  0  0  0  0  0  0  0  0
  -12.4842   15.8244   28.7316 H   0  0  0  0  0  0  0  0  0  0  0  0
  -13.3697   10.9717   28.8693 H   0  0  0  0  0  0  0  0  0  0  0  0
  -13.7721   11.1998   27.1336 H   0  0  0  0  0  0  0  0  0  0  0  0
  -17.5133   11.5235   28.0023 H   0  0  0  0  0  0  0  0  0  0  0  0
  -16.3472   11.9175   26.6939 H   0  0  0  0  0  0  0  0  0  0  0  0
  -16.9954   14.0031   27.5047 H   0  0  0  0  0  0  0  0  0  0  0  0
  -16.9948   13.4532   29.2147 H   0  0  0  0  0  0  0  0  0  0  0  0
  -14.8711    8.9458   28.3603 H   0  0  0  0  0  0  0  0  0  0  0  0
  -15.4668    9.6088   26.8008 H   0  0  0  0  0  0  0  0  0  0  0  0
  -16.6288    9.2237   28.1154 H   0  0  0  0  0  0  0  0  0  0  0  0
  -15.6581   11.9915   30.3548 H   0  0  0  0  0  0  0  0  0  0  0  0
  -15.0437   10.3057   30.4381 H   0  0  0  0  0  0  0  0  0  0  0  0
  -16.7836   10.6125   30.1135 H   0  0  0  0  0  0  0  0  0  0  0  0
  1  2  2  0  0  0  0
  1  6  1  0  0  0  0
  1 32  1  0  0  0  0
  2  3  1  0  0  0  0
  2 33  1  0  0  0  0
  3  4  2  0  0  0  0
  3  7  1  0  0  0  0
  4  5  1  0  0  0  0
  4 34  1  0  0  0  0
  5  6  2  0  0  0  0
  5 35  1  0  0  0  0
  6 36  1  0  0  0  0
  7  8  1  0  0  0  0
  7 13  1  0  0  0  0
  7 37  1  6  0  0  0
  8  9  1  0  0  0  0
  8 38  1  0  0  0  0
  8 39  1  0  0  0  0
  9 10  1  0  0  0  0
  9 40  1  0  0  0  0
  9 41  1  0  0  0  0
 10 11  1  0  0  0  0
 10 12  1  0  0  0  0
 10 42  1  0  0  0  0
 11 43  1  0  0  0  0
 11 44  1  0  0  0  0
 11 45  1  0  0  0  0
 12 46  1  0  0  0  0
 12 47  1  0  0  0  0
 12 48  1  0  0  0  0
 13 14  1  0  0  0  0
 13 17  1  0  0  0  0
 14 15  2  0  0  0  0
 15 16  1  0  0  0  0
 15 49  1  0  0  0  0
 16 17  2  0  0  0  0
 16 18  1  0  0  0  0
 17 50  1  0  0  0  0
 18 19  1  0  0  0  0
 18 51  1  0  0  0  0
 19 20  2  0  0  0  0
 19 21  1  0  0  0  0
 21 22  2  0  0  0  0
 21 25  1  0  0  0  0
 22 23  1  0  0  0  0
 22 29  1  0  0  0  0
 23 24  2  0  0  0  0
 23 26  1  0  0  0  0
 24 25  1  0  0  0  0
 25 52  1  0  0  0  0
 26 27  1  0  0  0  0
 26 53  1  0  0  0  0
 26 54  1  0  0  0  0
 27 28  1  0  0  0  0
 27 30  1  0  0  0  0
 27 31  1  0  0  0  0
 28 29  1  0  0  0  0
 28 55  1  0  0  0  0
 28 56  1  0  0  0  0
 29 57  1  0  0  0  0
 29 58  1  0  0  0  0
 30 59  1  0  0  0  0
 30 60  1  0  0  0  0
 30 61  1  0  0  0  0
 31 62  1  0  0  0  0
 31 63  1  0  0  0  0
 31 64  1  0  0  0  0
M  CHG  1  10   1
M  END
