4prb_ligand
 OpenBabel08222323353D

174178  0  0  1  0  0  0  0  0999 V2000
  -13.0500  -14.6930   36.6150 N   0  3  0  0  0  0  0  0  0  0  0  0
  -12.0300  -14.1830   37.5320 C   0  0  2  0  0  0  0  0  0  0  0  0
  -10.6490  -14.5080   36.9700 C   0  0  0  0  0  0  0  0  0  0  0  0
  -10.3870  -15.6390   36.5870 O   0  0  0  0  0  0  0  0  0  0  0  0
  -12.1760  -14.8410   38.9080 C   0  0  0  0  0  0  0  0  0  0  0  0
  -11.4210  -14.1450   40.0020 C   0  0  0  0  0  0  0  0  0  0  0  0
  -10.0440  -14.1310   40.0680 N   0  0  0  0  0  0  0  0  0  0  0  0
  -11.8560  -13.4510   41.0820 C   0  0  0  0  0  0  0  0  0  0  0  0
   -9.6620  -13.4540   41.1370 C   0  0  0  0  0  0  0  0  0  0  0  0
  -10.7420  -13.0340   41.7720 N   0  0  0  0  0  0  0  0  0  0  0  0
   -9.7620  -13.5100   36.9040 N   0  0  0  0  0  0  0  0  0  0  0  0
   -8.4440  -13.7720   36.3180 C   0  0  2  0  0  0  0  0  0  0  0  0
   -7.5670  -14.5950   37.2460 C   0  0  0  0  0  0  0  0  0  0  0  0
   -7.8620  -14.6990   38.4360 O   0  0  0  0  0  0  0  0  0  0  0  0
   -7.8480  -12.3630   36.1740 C   0  0  0  0  0  0  0  0  0  0  0  0
   -8.5030  -11.5850   37.2590 C   0  0  0  0  0  0  0  0  0  0  0  0
   -9.9200  -12.0990   37.3010 C   0  0  0  0  0  0  0  0  0  0  0  0
   -6.5050  -15.1740   36.6980 N   0  0  0  0  0  0  0  0  0  0  0  0
   -5.5250  -15.9000   37.4920 C   0  0  2  0  0  0  0  0  0  0  0  0
   -4.6440  -14.8950   38.2230 C   0  0  0  0  0  0  0  0  0  0  0  0
   -4.3610  -13.8140   37.7070 O   0  0  0  0  0  0  0  0  0  0  0  0
   -4.6890  -16.8640   36.6170 C   0  0  0  0  0  0  0  0  0  0  0  0
   -3.7710  -16.0950   35.6330 C   0  0  0  0  0  0  0  0  0  0  0  0
   -3.8870  -17.8600   37.4970 C   0  0  0  0  0  0  0  0  0  0  0  0
   -4.2540  -15.2330   39.4460 N   0  0  0  0  0  0  0  0  0  0  0  0
   -3.3440  -14.3930   40.2140 C   0  0  2  0  0  0  0  0  0  0  0  0
   -1.9190  -14.8530   39.9600 C   0  0  0  0  0  0  0  0  0  0  0  0
   -1.6110  -16.0420   40.0290 O   0  0  0  0  0  0  0  0  0  0  0  0
   -3.6720  -14.4560   41.6990 C   0  0  0  0  0  0  0  0  0  0  0  0
   -1.0440  -13.9150   39.6360 N   0  0  0  0  0  0  0  0  0  0  0  0
    0.3450  -14.2580   39.4270 C   0  0  2  0  0  0  0  0  0  0  0  0
    1.0570  -14.3570   40.7750 C   0  0  0  0  0  0  0  0  0  0  0  0
    0.6630  -13.6980   41.7380 O   0  0  0  0  0  0  0  0  0  0  0  0
    1.0450  -13.2110   38.5500 C   0  0  0  0  0  0  0  0  0  0  0  0
    0.3790  -12.9570   37.2020 C   0  0  0  0  0  0  0  0  0  0  0  0
    0.2760  -14.1940   36.3240 C   0  0  0  0  0  0  0  0  0  0  0  0
    1.0770  -15.1410   36.4840 O   0  5  0  0  0  0  0  0  0  0  0  0
   -0.6130  -14.2100   35.4480 O   0  0  0  0  0  0  0  0  0  0  0  0
    2.0930  -15.1870   40.8240 N   0  0  0  0  0  0  0  0  0  0  0  0
    2.9680  -15.2770   41.9870 C   0  0  2  0  0  0  0  0  0  0  0  0
    3.8140  -14.0150   42.0510 C   0  0  0  0  0  0  0  0  0  0  0  0
    4.0100  -13.3450   41.0420 O   0  0  0  0  0  0  0  0  0  0  0  0
    3.8550  -16.5010   41.8880 C   0  0  0  0  0  0  0  0  0  0  0  0
    4.3100  -13.6810   43.2350 N   0  0  0  0  0  0  0  0  0  0  0  0
    5.1770  -12.5160   43.3670 C   0  0  2  0  0  0  0  0  0  0  0  0
    6.3760  -12.6260   42.4250 C   0  0  0  0  0  0  0  0  0  0  0  0
    6.9100  -13.7160   42.2060 O   0  0  0  0  0  0  0  0  0  0  0  0
    5.6420  -12.3400   44.8160 C   0  0  0  0  0  0  0  0  0  0  0  0
    4.4930  -12.0500   45.7630 C   0  0  0  0  0  0  0  0  0  0  0  0
    3.4380  -11.5720   45.2920 O   0  5  0  0  0  0  0  0  0  0  0  0
    4.6420  -12.2980   46.9800 O   0  0  0  0  0  0  0  0  0  0  0  0
    6.7670  -11.4950   41.8460 N   0  0  0  0  0  0  0  0  0  0  0  0
    7.9710  -11.4190   41.0250 C   0  0  2  0  0  0  0  0  0  0  0  0
    7.8520  -12.2040   39.7150 C   0  0  0  0  0  0  0  0  0  0  0  0
    8.8620  -12.5740   39.1160 O   0  0  0  0  0  0  0  0  0  0  0  0
    9.1800  -11.9010   41.8320 C   0  0  0  0  0  0  0  0  0  0  0  0
    9.1320  -11.4920   43.2900 C   0  0  0  0  0  0  0  0  0  0  0  0
    8.7380  -10.2130   43.6610 C   0  0  0  0  0  0  0  0  0  0  0  0
    9.4590  -12.3940   44.2940 C   0  0  0  0  0  0  0  0  0  0  0  0
    8.6850   -9.8400   44.9900 C   0  0  0  0  0  0  0  0  0  0  0  0
    9.4090  -12.0310   45.6230 C   0  0  0  0  0  0  0  0  0  0  0  0
    9.0230  -10.7530   45.9660 C   0  0  0  0  0  0  0  0  0  0  0  0
    8.9720  -10.3890   47.2920 O   0  0  0  0  0  0  0  0  0  0  0  0
    6.6180  -12.4560   39.2790 N   0  0  0  0  0  0  0  0  0  0  0  0
    6.3710  -13.0990   37.9880 C   0  0  2  0  0  0  0  0  0  0  0  0
    6.9390  -12.2210   36.8730 C   0  0  0  0  0  0  0  0  0  0  0  0
    6.7260  -11.0110   36.8600 O   0  0  0  0  0  0  0  0  0  0  0  0
    4.8590  -13.3580   37.7940 C   0  0  0  0  0  0  0  0  0  0  0  0
    4.4670  -13.7440   36.3850 C   0  0  0  0  0  0  0  0  0  0  0  0
    3.7660  -12.8520   35.5770 C   0  0  0  0  0  0  0  0  0  0  0  0
    4.7730  -15.0010   35.8800 C   0  0  0  0  0  0  0  0  0  0  0  0
    3.3940  -13.2010   34.2840 C   0  0  0  0  0  0  0  0  0  0  0  0
    4.4090  -15.3570   34.5820 C   0  0  0  0  0  0  0  0  0  0  0  0
    3.7160  -14.4470   33.7840 C   0  0  0  0  0  0  0  0  0  0  0  0
    7.6830  -12.8360   35.9630 N   0  0  0  0  0  0  0  0  0  0  0  0
    8.2590  -12.1260   34.8340 C   0  0  2  0  0  0  0  0  0  0  0  0
    8.5630  -13.0830   33.6960 C   0  0  0  0  0  0  0  0  0  0  0  0
    8.7550  -14.2870   33.9060 O   0  0  0  0  0  0  0  0  0  0  0  0
    9.5410  -11.3900   35.2530 C   0  0  0  0  0  0  0  0  0  0  0  0
   10.7550  -12.3050   35.4550 C   0  0  0  0  0  0  0  0  0  0  0  0
   12.0390  -11.5150   35.7110 C   0  0  0  0  0  0  0  0  0  0  0  0
   11.9430  -10.2920   35.9710 O   0  5  0  0  0  0  0  0  0  0  0  0
   13.1390  -12.1110   35.6330 O   0  0  0  0  0  0  0  0  0  0  0  0
    8.5360  -12.5620   32.4900 N   0  0  0  0  0  0  0  0  0  0  0  0
    9.0110  -13.2440   31.3420 C   0  0  2  0  0  0  0  0  0  0  0  0
   10.5600  -13.2420   31.3370 C   0  0  0  0  0  0  0  0  0  0  0  0
   11.0970  -13.9500   30.5580 O   0  5  0  0  0  0  0  0  0  0  0  0
    8.4360  -12.6580   30.0240 C   0  0  0  0  0  0  0  0  0  0  0  0
    6.9270  -12.8360   29.7980 C   0  0  0  0  0  0  0  0  0  0  0  0
    6.4230  -13.3910   28.6410 C   0  0  0  0  0  0  0  0  0  0  0  0
    6.0340  -12.4080   30.7080 C   0  0  0  0  0  0  0  0  0  0  0  0
    5.0790  -13.5460   28.4310 C   0  0  0  0  0  0  0  0  0  0  0  0
    4.7000  -12.5460   30.5070 C   0  0  0  0  0  0  0  0  0  0  0  0
    4.2100  -13.1130   29.3810 C   0  0  0  0  0  0  0  0  0  0  0  0
    2.8860  -13.2190   29.2300 O   0  0  0  0  0  0  0  0  0  0  0  0
   11.1890  -12.5230   32.1190 O   0  0  0  0  0  0  0  0  0  0  0  0
  -13.9656  -14.4819   36.9799 H   0  0  0  0  0  0  0  0  0  0  0  0
  -12.9480  -15.6914   36.5205 H   0  0  0  0  0  0  0  0  0  0  0  0
  -12.9391  -14.2571   35.7130 H   0  0  0  0  0  0  0  0  0  0  0  0
  -12.1415  -13.0934   37.6339 H   0  0  0  0  0  0  0  0  0  0  0  0
  -11.8075  -15.8750   38.8375 H   0  0  0  0  0  0  0  0  0  0  0  0
  -13.2429  -14.8494   39.1757 H   0  0  0  0  0  0  0  0  0  0  0  0
  -12.8933  -13.2595   41.3526 H   0  0  0  0  0  0  0  0  0  0  0  0
   -8.6325  -13.2731   41.4424 H   0  0  0  0  0  0  0  0  0  0  0  0
  -10.7484  -12.4836   42.6426 H   0  0  0  0  0  0  0  0  0  0  0  0
   -8.5354  -14.2761   35.3446 H   0  0  0  0  0  0  0  0  0  0  0  0
   -8.0856  -11.9364   35.1883 H   0  0  0  0  0  0  0  0  0  0  0  0
   -6.7568  -12.3837   36.3112 H   0  0  0  0  0  0  0  0  0  0  0  0
   -8.4877  -10.5096   37.0281 H   0  0  0  0  0  0  0  0  0  0  0  0
   -7.9985  -11.7608   38.2206 H   0  0  0  0  0  0  0  0  0  0  0  0
  -10.3426  -12.0162   38.3132 H   0  0  0  0  0  0  0  0  0  0  0  0
  -10.5606  -11.5559   36.5906 H   0  0  0  0  0  0  0  0  0  0  0  0
   -6.3746  -15.1091   35.7087 H   0  0  0  0  0  0  0  0  0  0  0  0
   -6.0604  -16.5020   38.2409 H   0  0  0  0  0  0  0  0  0  0  0  0
   -5.3934  -17.4539   36.0121 H   0  0  0  0  0  0  0  0  0  0  0  0
   -3.1953  -16.8135   35.0311 H   0  0  0  0  0  0  0  0  0  0  0  0
   -3.0794  -15.4551   36.2007 H   0  0  0  0  0  0  0  0  0  0  0  0
   -4.3867  -15.4707   34.9688 H   0  0  0  0  0  0  0  0  0  0  0  0
   -4.5743  -18.3828   38.1784 H   0  0  0  0  0  0  0  0  0  0  0  0
   -3.1372  -17.3092   38.0839 H   0  0  0  0  0  0  0  0  0  0  0  0
   -3.3812  -18.5939   36.8523 H   0  0  0  0  0  0  0  0  0  0  0  0
   -4.5923  -16.0832   39.8494 H   0  0  0  0  0  0  0  0  0  0  0  0
   -3.4489  -13.3515   39.8761 H   0  0  0  0  0  0  0  0  0  0  0  0
   -2.9730  -13.8152   42.2564 H   0  0  0  0  0  0  0  0  0  0  0  0
   -3.5786  -15.4938   42.0515 H   0  0  0  0  0  0  0  0  0  0  0  0
   -4.7014  -14.1045   41.8624 H   0  0  0  0  0  0  0  0  0  0  0  0
   -1.3441  -12.9664   39.5354 H   0  0  0  0  0  0  0  0  0  0  0  0
    0.3962  -15.2337   38.9217 H   0  0  0  0  0  0  0  0  0  0  0  0
    2.0738  -13.5530   38.3642 H   0  0  0  0  0  0  0  0  0  0  0  0
    1.0687  -12.2611   39.1042 H   0  0  0  0  0  0  0  0  0  0  0  0
    0.9651  -12.1977   36.6635 H   0  0  0  0  0  0  0  0  0  0  0  0
   -0.6366  -12.5755   37.3836 H   0  0  0  0  0  0  0  0  0  0  0  0
    2.2797  -15.7715   40.0344 H   0  0  0  0  0  0  0  0  0  0  0  0
    2.3561  -15.3521   42.8980 H   0  0  0  0  0  0  0  0  0  0  0  0
    4.5076  -16.5534   42.7720 H   0  0  0  0  0  0  0  0  0  0  0  0
    4.4723  -16.4340   40.9800 H   0  0  0  0  0  0  0  0  0  0  0  0
    3.2293  -17.4044   41.8402 H   0  0  0  0  0  0  0  0  0  0  0  0
    4.0884  -14.2305   44.0406 H   0  0  0  0  0  0  0  0  0  0  0  0
    4.5981  -11.6248   43.0830 H   0  0  0  0  0  0  0  0  0  0  0  0
    6.3544  -11.5029   44.8588 H   0  0  0  0  0  0  0  0  0  0  0  0
    6.1423  -13.2642   45.1408 H   0  0  0  0  0  0  0  0  0  0  0  0
    6.2182  -10.6694   41.9774 H   0  0  0  0  0  0  0  0  0  0  0  0
    8.1317  -10.3624   40.7647 H   0  0  0  0  0  0  0  0  0  0  0  0
   10.0906  -11.4793   41.3814 H   0  0  0  0  0  0  0  0  0  0  0  0
    9.2193  -12.9990   41.7790 H   0  0  0  0  0  0  0  0  0  0  0  0
    8.4675   -9.4954   42.8949 H   0  0  0  0  0  0  0  0  0  0  0  0
    9.7588  -13.4012   44.0280 H   0  0  0  0  0  0  0  0  0  0  0  0
    8.3798   -8.8365   45.2635 H   0  0  0  0  0  0  0  0  0  0  0  0
    9.6717  -12.7465   46.3938 H   0  0  0  0  0  0  0  0  0  0  0  0
    8.6903   -9.4842   47.3603 H   0  0  0  0  0  0  0  0  0  0  0  0
    5.8388  -12.1983   39.8504 H   0  0  0  0  0  0  0  0  0  0  0  0
    6.8920  -14.0676   37.9698 H   0  0  0  0  0  0  0  0  0  0  0  0
    4.3154  -12.4404   38.0631 H   0  0  0  0  0  0  0  0  0  0  0  0
    4.5600  -14.1729   38.4697 H   0  0  0  0  0  0  0  0  0  0  0  0
    3.5070  -11.8722   35.9618 H   0  0  0  0  0  0  0  0  0  0  0  0
    5.3013  -15.7140   36.5025 H   0  0  0  0  0  0  0  0  0  0  0  0
    2.8505  -12.4941   33.6675 H   0  0  0  0  0  0  0  0  0  0  0  0
    4.6636  -16.3369   34.1947 H   0  0  0  0  0  0  0  0  0  0  0  0
    3.4309  -14.7173   32.7737 H   0  0  0  0  0  0  0  0  0  0  0  0
    7.8523  -13.8171   36.0569 H   0  0  0  0  0  0  0  0  0  0  0  0
    7.5281  -11.3835   34.4813 H   0  0  0  0  0  0  0  0  0  0  0  0
    9.3436  -10.8652   36.1994 H   0  0  0  0  0  0  0  0  0  0  0  0
    9.7885  -10.6564   34.4716 H   0  0  0  0  0  0  0  0  0  0  0  0
   10.8906  -12.9179   34.5517 H   0  0  0  0  0  0  0  0  0  0  0  0
   10.5647  -12.9604   36.3177 H   0  0  0  0  0  0  0  0  0  0  0  0
    8.1628  -11.6412   32.3769 H   0  0  0  0  0  0  0  0  0  0  0  0
    8.6746  -14.2890   31.4105 H   0  0  0  0  0  0  0  0  0  0  0  0
    8.9591  -13.1422   29.1863 H   0  0  0  0  0  0  0  0  0  0  0  0
    8.6505  -11.5792   30.0159 H   0  0  0  0  0  0  0  0  0  0  0  0
    7.1142  -13.7156   27.8716 H   0  0  0  0  0  0  0  0  0  0  0  0
    6.3879  -11.9431   31.6211 H   0  0  0  0  0  0  0  0  0  0  0  0
    4.7139  -14.0072   27.5205 H   0  0  0  0  0  0  0  0  0  0  0  0
    4.0107  -12.1939   31.2660 H   0  0  0  0  0  0  0  0  0  0  0  0
    2.6956  -13.6343   28.3971 H   0  0  0  0  0  0  0  0  0  0  0  0
  1  2  1  0  0  0  0
  1 97  1  0  0  0  0
  1 98  1  0  0  0  0
  1 99  1  0  0  0  0
  2  3  1  0  0  0  0
  2  5  1  0  0  0  0
  2100  1  1  0  0  0
  3  4  2  0  0  0  0
  3 11  1  0  0  0  0
  5  6  1  0  0  0  0
  5101  1  0  0  0  0
  5102  1  0  0  0  0
  6  7  1  0  0  0  0
  6  8  2  0  0  0  0
  7  9  2  0  0  0  0
  8 10  1  0  0  0  0
  8103  1  0  0  0  0
  9 10  1  0  0  0  0
  9104  1  0  0  0  0
 10105  1  0  0  0  0
 11 12  1  0  0  0  0
 11 17  1  0  0  0  0
 12 13  1  0  0  0  0
 12 15  1  0  0  0  0
 12106  1  6  0  0  0
 13 14  2  0  0  0  0
 13 18  1  0  0  0  0
 15 16  1  0  0  0  0
 15107  1  0  0  0  0
 15108  1  0  0  0  0
 16 17  1  0  0  0  0
 16109  1  0  0  0  0
 16110  1  0  0  0  0
 17111  1  0  0  0  0
 17112  1  0  0  0  0
 18 19  1  0  0  0  0
 18113  1  0  0  0  0
 19 20  1  0  0  0  0
 19 22  1  0  0  0  0
 19114  1  1  0  0  0
 20 21  2  0  0  0  0
 20 25  1  0  0  0  0
 22 23  1  0  0  0  0
 22 24  1  0  0  0  0
 22115  1  0  0  0  0
 23116  1  0  0  0  0
 23117  1  0  0  0  0
 23118  1  0  0  0  0
 24119  1  0  0  0  0
 24120  1  0  0  0  0
 24121  1  0  0  0  0
 25 26  1  0  0  0  0
 25122  1  0  0  0  0
 26 27  1  0  0  0  0
 26 29  1  0  0  0  0
 26123  1  6  0  0  0
 27 28  2  0  0  0  0
 27 30  1  0  0  0  0
 29124  1  0  0  0  0
 29125  1  0  0  0  0
 29126  1  0  0  0  0
 30 31  1  0  0  0  0
 30127  1  0  0  0  0
 31 32  1  0  0  0  0
 31 34  1  0  0  0  0
 31128  1  6  0  0  0
 32 33  2  0  0  0  0
 32 39  1  0  0  0  0
 34 35  1  0  0  0  0
 34129  1  0  0  0  0
 34130  1  0  0  0  0
 35 36  1  0  0  0  0
 35131  1  0  0  0  0
 35132  1  0  0  0  0
 36 37  1  0  0  0  0
 36 38  2  0  0  0  0
 39 40  1  0  0  0  0
 39133  1  0  0  0  0
 40 41  1  0  0  0  0
 40 43  1  0  0  0  0
 40134  1  1  0  0  0
 41 42  2  0  0  0  0
 41 44  1  0  0  0  0
 43135  1  0  0  0  0
 43136  1  0  0  0  0
 43137  1  0  0  0  0
 44 45  1  0  0  0  0
 44138  1  0  0  0  0
 45 46  1  0  0  0  0
 45 48  1  0  0  0  0
 45139  1  6  0  0  0
 46 47  2  0  0  0  0
 46 52  1  0  0  0  0
 48 49  1  0  0  0  0
 48140  1  0  0  0  0
 48141  1  0  0  0  0
 49 50  1  0  0  0  0
 49 51  2  0  0  0  0
 52 53  1  0  0  0  0
 52142  1  0  0  0  0
 53 54  1  0  0  0  0
 53 56  1  0  0  0  0
 53143  1  6  0  0  0
 54 55  2  0  0  0  0
 54 64  1  0  0  0  0
 56 57  1  0  0  0  0
 56144  1  0  0  0  0
 56145  1  0  0  0  0
 57 58  2  0  0  0  0
 57 59  1  0  0  0  0
 58 60  1  0  0  0  0
 58146  1  0  0  0  0
 59 61  2  0  0  0  0
 59147  1  0  0  0  0
 60 62  2  0  0  0  0
 60148  1  0  0  0  0
 61 62  1  0  0  0  0
 61149  1  0  0  0  0
 62 63  1  0  0  0  0
 63150  1  0  0  0  0
 64 65  1  0  0  0  0
 64151  1  0  0  0  0
 65 66  1  0  0  0  0
 65 68  1  0  0  0  0
 65152  1  6  0  0  0
 66 67  2  0  0  0  0
 66 75  1  0  0  0  0
 68 69  1  0  0  0  0
 68153  1  0  0  0  0
 68154  1  0  0  0  0
 69 70  2  0  0  0  0
 69 71  1  0  0  0  0
 70 72  1  0  0  0  0
 70155  1  0  0  0  0
 71 73  2  0  0  0  0
 71156  1  0  0  0  0
 72 74  2  0  0  0  0
 72157  1  0  0  0  0
 73 74  1  0  0  0  0
 73158  1  0  0  0  0
 74159  1  0  0  0  0
 75 76  1  0  0  0  0
 75160  1  0  0  0  0
 76 77  1  0  0  0  0
 76 79  1  0  0  0  0
 76161  1  6  0  0  0
 77 78  2  0  0  0  0
 77 84  1  0  0  0  0
 79 80  1  0  0  0  0
 79162  1  0  0  0  0
 79163  1  0  0  0  0
 80 81  1  0  0  0  0
 80164  1  0  0  0  0
 80165  1  0  0  0  0
 81 82  1  0  0  0  0
 81 83  2  0  0  0  0
 84 85  1  0  0  0  0
 84166  1  0  0  0  0
 85 86  1  0  0  0  0
 85 88  1  0  0  0  0
 85167  1  1  0  0  0
 86 87  1  0  0  0  0
 86 96  2  0  0  0  0
 88 89  1  0  0  0  0
 88168  1  0  0  0  0
 88169  1  0  0  0  0
 89 90  2  0  0  0  0
 89 91  1  0  0  0  0
 90 92  1  0  0  0  0
 90170  1  0  0  0  0
 91 93  2  0  0  0  0
 91171  1  0  0  0  0
 92 94  2  0  0  0  0
 92172  1  0  0  0  0
 93 94  1  0  0  0  0
 93173  1  0  0  0  0
 94 95  1  0  0  0  0
 95174  1  0  0  0  0
M  CHG  5   1   1  37  -1  50  -1  82  -1  87  -1
M  END
