4pre_ligand
 OpenBabel08222323353D

173177  0  0  1  0  0  0  0  0999 V2000
   13.0980  -14.5540  -36.6010 N   0  3  0  0  0  0  0  0  0  0  0  0
   12.0870  -13.9950  -37.5060 C   0  0  2  0  0  0  0  0  0  0  0  0
   10.7060  -14.3060  -36.9280 C   0  0  0  0  0  0  0  0  0  0  0  0
   10.4450  -15.4350  -36.5260 O   0  0  0  0  0  0  0  0  0  0  0  0
   12.2190  -14.6500  -38.8890 C   0  0  0  0  0  0  0  0  0  0  0  0
   11.4990  -13.9290  -39.9900 C   0  0  0  0  0  0  0  0  0  0  0  0
   10.1230  -13.8570  -40.0650 N   0  0  0  0  0  0  0  0  0  0  0  0
   11.9700  -13.2750  -41.0790 C   0  0  0  0  0  0  0  0  0  0  0  0
    9.7790  -13.1750  -41.1440 C   0  0  0  0  0  0  0  0  0  0  0  0
   10.8810  -12.8130  -41.7790 N   0  0  0  0  0  0  0  0  0  0  0  0
    9.8150  -13.3090  -36.8890 N   0  0  0  0  0  0  0  0  0  0  0  0
    8.4830  -13.5460  -36.3240 C   0  0  2  0  0  0  0  0  0  0  0  0
    7.6160  -14.3930  -37.2440 C   0  0  0  0  0  0  0  0  0  0  0  0
    7.9200  -14.5210  -38.4280 O   0  0  0  0  0  0  0  0  0  0  0  0
    7.8980  -12.1320  -36.2220 C   0  0  0  0  0  0  0  0  0  0  0  0
    8.5810  -11.3720  -37.3190 C   0  0  0  0  0  0  0  0  0  0  0  0
    9.9940  -11.9140  -37.3360 C   0  0  0  0  0  0  0  0  0  0  0  0
    6.5460  -14.9650  -36.7010 N   0  0  0  0  0  0  0  0  0  0  0  0
    5.5770  -15.6720  -37.5270 C   0  0  2  0  0  0  0  0  0  0  0  0
    4.7510  -14.6640  -38.3300 C   0  0  0  0  0  0  0  0  0  0  0  0
    4.5580  -13.5240  -37.9050 O   0  0  0  0  0  0  0  0  0  0  0  0
    4.6850  -16.5990  -36.6780 C   0  0  0  0  0  0  0  0  0  0  0  0
    3.8190  -15.8110  -35.6950 C   0  0  0  0  0  0  0  0  0  0  0  0
    3.8250  -17.4940  -37.5750 C   0  0  0  0  0  0  0  0  0  0  0  0
    4.2990  -15.0770  -39.5080 N   0  0  0  0  0  0  0  0  0  0  0  0
    3.5650  -14.1850  -40.3840 C   0  0  0  0  0  0  0  0  0  0  0  0
    2.0990  -14.5430  -40.4510 C   0  0  0  0  0  0  0  0  0  0  0  0
    1.3210  -14.2200  -39.5530 O   0  0  0  0  0  0  0  0  0  0  0  0
    1.7320  -15.2480  -41.5160 N   0  0  0  0  0  0  0  0  0  0  0  0
    0.3350  -15.5450  -41.8220 C   0  0  2  0  0  0  0  0  0  0  0  0
   -0.4280  -16.2880  -40.7130 C   0  0  0  0  0  0  0  0  0  0  0  0
   -1.6500  -16.1450  -40.5980 O   0  0  0  0  0  0  0  0  0  0  0  0
    0.2540  -16.3100  -43.1460 C   0  0  0  0  0  0  0  0  0  0  0  0
    1.2740  -15.8220  -44.1710 C   0  0  0  0  0  0  0  0  0  0  0  0
    1.1960  -16.5610  -45.4920 C   0  0  0  0  0  0  0  0  0  0  0  0
    2.1340  -17.2550  -45.8850 O   0  0  0  0  0  0  0  0  0  0  0  0
    0.0790  -16.4060  -46.1920 N   0  0  0  0  0  0  0  0  0  0  0  0
    0.2810  -17.0690  -39.8940 N   0  0  0  0  0  0  0  0  0  0  0  0
   -0.3760  -17.8440  -38.8370 C   0  0  2  0  0  0  0  0  0  0  0  0
   -0.9790  -16.9300  -37.7730 C   0  0  0  0  0  0  0  0  0  0  0  0
   -1.7560  -17.3720  -36.9210 O   0  0  0  0  0  0  0  0  0  0  0  0
    0.5930  -18.8610  -38.2070 C   0  0  0  0  0  0  0  0  0  0  0  0
   -0.6280  -15.6480  -37.8430 N   0  0  0  0  0  0  0  0  0  0  0  0
   -1.1630  -14.6460  -36.9290 C   0  0  2  0  0  0  0  0  0  0  0  0
   -2.2880  -13.8090  -37.5480 C   0  0  0  0  0  0  0  0  0  0  0  0
   -2.6900  -12.7940  -36.9800 O   0  0  0  0  0  0  0  0  0  0  0  0
   -0.0500  -13.7120  -36.4660 C   0  0  0  0  0  0  0  0  0  0  0  0
    0.5510  -14.1450  -35.1610 C   0  0  0  0  0  0  0  0  0  0  0  0
    0.0500  -15.1410  -34.5820 O   0  5  0  0  0  0  0  0  0  0  0  0
    1.4990  -13.4760  -34.6950 O   0  0  0  0  0  0  0  0  0  0  0  0
   -2.7910  -14.2310  -38.7050 N   0  0  0  0  0  0  0  0  0  0  0  0
   -3.8220  -13.4670  -39.4070 C   0  0  2  0  0  0  0  0  0  0  0  0
   -5.1620  -13.4350  -38.6590 C   0  0  0  0  0  0  0  0  0  0  0  0
   -5.8550  -12.4150  -38.6360 O   0  0  0  0  0  0  0  0  0  0  0  0
   -4.0150  -14.0090  -40.8330 C   0  0  0  0  0  0  0  0  0  0  0  0
   -5.2530  -13.4830  -41.5360 C   0  0  0  0  0  0  0  0  0  0  0  0
   -6.4420  -14.2120  -41.5370 C   0  0  0  0  0  0  0  0  0  0  0  0
   -5.2350  -12.2570  -42.1910 C   0  0  0  0  0  0  0  0  0  0  0  0
   -7.5750  -13.7310  -42.1740 C   0  0  0  0  0  0  0  0  0  0  0  0
   -6.3620  -11.7680  -42.8330 C   0  0  0  0  0  0  0  0  0  0  0  0
   -7.5290  -12.5070  -42.8200 C   0  0  0  0  0  0  0  0  0  0  0  0
   -8.6510  -12.0210  -43.4580 O   0  0  0  0  0  0  0  0  0  0  0  0
   -5.5420  -14.5480  -38.0490 N   0  0  0  0  0  0  0  0  0  0  0  0
   -6.8590  -14.5970  -37.4230 C   0  0  2  0  0  0  0  0  0  0  0  0
   -6.9340  -13.8550  -36.0860 C   0  0  0  0  0  0  0  0  0  0  0  0
   -6.0910  -14.0240  -35.1970 O   0  0  0  0  0  0  0  0  0  0  0  0
   -7.3750  -16.0350  -37.3260 C   0  0  0  0  0  0  0  0  0  0  0  0
   -7.8840  -16.5820  -38.6400 C   0  0  0  0  0  0  0  0  0  0  0  0
   -9.1560  -16.2550  -39.0950 C   0  0  0  0  0  0  0  0  0  0  0  0
   -7.0900  -17.4110  -39.4230 C   0  0  0  0  0  0  0  0  0  0  0  0
   -9.6300  -16.7500  -40.3040 C   0  0  0  0  0  0  0  0  0  0  0  0
   -7.5570  -17.9100  -40.6330 C   0  0  0  0  0  0  0  0  0  0  0  0
   -8.8300  -17.5790  -41.0720 C   0  0  0  0  0  0  0  0  0  0  0  0
   -7.9450  -13.0150  -35.9330 N   0  0  0  0  0  0  0  0  0  0  0  0
   -8.2130  -12.2920  -34.7150 C   0  0  2  0  0  0  0  0  0  0  0  0
   -8.5830  -13.2280  -33.5900 C   0  0  0  0  0  0  0  0  0  0  0  0
   -8.9710  -14.3070  -33.8300 O   0  0  0  0  0  0  0  0  0  0  0  0
   -9.4000  -11.3540  -34.9250 C   0  0  0  0  0  0  0  0  0  0  0  0
   -9.2140  -10.3290  -35.9520 C   0  0  0  0  0  0  0  0  0  0  0  0
  -10.5100   -9.5310  -36.2730 C   0  0  0  0  0  0  0  0  0  0  0  0
  -11.5540   -9.7360  -35.6580 O   0  5  0  0  0  0  0  0  0  0  0  0
  -10.4090   -8.7010  -37.1470 O   0  0  0  0  0  0  0  0  0  0  0  0
   -8.4660  -12.7440  -32.3670 N   0  0  0  0  0  0  0  0  0  0  0  0
   -8.9890  -13.4330  -31.1950 C   0  0  2  0  0  0  0  0  0  0  0  0
  -10.5380  -13.4190  -31.1720 C   0  0  0  0  0  0  0  0  0  0  0  0
  -11.1020  -14.1730  -30.4140 O   0  5  0  0  0  0  0  0  0  0  0  0
   -8.4320  -12.8310  -29.8790 C   0  0  0  0  0  0  0  0  0  0  0  0
   -6.9400  -13.0010  -29.5820 C   0  0  0  0  0  0  0  0  0  0  0  0
   -6.5160  -13.4170  -28.3770 C   0  0  0  0  0  0  0  0  0  0  0  0
   -5.9830  -12.6630  -30.4880 C   0  0  0  0  0  0  0  0  0  0  0  0
   -5.1780  -13.5590  -28.1040 C   0  0  0  0  0  0  0  0  0  0  0  0
   -4.6640  -12.7540  -30.2140 C   0  0  0  0  0  0  0  0  0  0  0  0
   -4.2370  -13.2200  -29.0200 C   0  0  0  0  0  0  0  0  0  0  0  0
   -2.9140  -13.3490  -28.7080 O   0  0  0  0  0  0  0  0  0  0  0  0
  -11.1730  -12.6620  -31.9050 O   0  0  0  0  0  0  0  0  0  0  0  0
   14.0181  -14.3598  -36.9641 H   0  0  0  0  0  0  0  0  0  0  0  0
   12.9692  -15.5511  -36.5280 H   0  0  0  0  0  0  0  0  0  0  0  0
   13.0013  -14.1351  -35.6893 H   0  0  0  0  0  0  0  0  0  0  0  0
   12.2220  -12.9070  -37.5952 H   0  0  0  0  0  0  0  0  0  0  0  0
   11.8151  -15.6712  -38.8255 H   0  0  0  0  0  0  0  0  0  0  0  0
   13.2872  -14.6936  -39.1480 H   0  0  0  0  0  0  0  0  0  0  0  0
   13.0163  -13.1404  -41.3494 H   0  0  0  0  0  0  0  0  0  0  0  0
    8.7606  -12.9495  -41.4569 H   0  0  0  0  0  0  0  0  0  0  0  0
   10.9174  -12.2729  -42.6553 H   0  0  0  0  0  0  0  0  0  0  0  0
    8.5533  -14.0253  -35.3364 H   0  0  0  0  0  0  0  0  0  0  0  0
    8.1217  -11.6870  -35.2412 H   0  0  0  0  0  0  0  0  0  0  0  0
    6.8092  -12.1480  -36.3778 H   0  0  0  0  0  0  0  0  0  0  0  0
    8.5813  -10.2935  -37.1024 H   0  0  0  0  0  0  0  0  0  0  0  0
    8.0843  -11.5521  -38.2838 H   0  0  0  0  0  0  0  0  0  0  0  0
   10.4213  -11.8743  -38.3488 H   0  0  0  0  0  0  0  0  0  0  0  0
   10.6407  -11.3558  -36.6430 H   0  0  0  0  0  0  0  0  0  0  0  0
    6.4046  -14.9092  -35.7126 H   0  0  0  0  0  0  0  0  0  0  0  0
    6.1302  -16.3019  -38.2391 H   0  0  0  0  0  0  0  0  0  0  0  0
    5.3470  -17.2507  -36.0888 H   0  0  0  0  0  0  0  0  0  0  0  0
    3.2002  -16.5082  -35.1111 H   0  0  0  0  0  0  0  0  0  0  0  0
    3.1679  -15.1208  -36.2515 H   0  0  0  0  0  0  0  0  0  0  0  0
    4.4657  -15.2371  -35.0150 H   0  0  0  0  0  0  0  0  0  0  0  0
    4.4733  -18.0475  -38.2702 H   0  0  0  0  0  0  0  0  0  0  0  0
    3.1209  -16.8717  -38.1469 H   0  0  0  0  0  0  0  0  0  0  0  0
    3.2631  -18.2057  -36.9523 H   0  0  0  0  0  0  0  0  0  0  0  0
    4.4677  -16.0196  -39.7960 H   0  0  0  0  0  0  0  0  0  0  0  0
    3.9931  -14.2477  -41.3953 H   0  0  0  0  0  0  0  0  0  0  0  0
    3.6631  -13.1562  -40.0074 H   0  0  0  0  0  0  0  0  0  0  0  0
    2.4412  -15.5891  -42.1331 H   0  0  0  0  0  0  0  0  0  0  0  0
   -0.1738  -14.5798  -41.9617 H   0  0  0  0  0  0  0  0  0  0  0  0
   -0.7549  -16.1823  -43.5652 H   0  0  0  0  0  0  0  0  0  0  0  0
    0.4366  -17.3765  -42.9481 H   0  0  0  0  0  0  0  0  0  0  0  0
    2.2822  -15.9592  -43.7531 H   0  0  0  0  0  0  0  0  0  0  0  0
    1.0970  -14.7526  -44.3581 H   0  0  0  0  0  0  0  0  0  0  0  0
   -0.0284  -16.8698  -47.0714 H   0  0  0  0  0  0  0  0  0  0  0  0
   -0.6552  -15.8254  -45.8400 H   0  0  0  0  0  0  0  0  0  0  0  0
    1.2734  -17.1260  -40.0031 H   0  0  0  0  0  0  0  0  0  0  0  0
   -1.1994  -18.4082  -39.2993 H   0  0  0  0  0  0  0  0  0  0  0  0
    0.0715  -19.4251  -37.4197 H   0  0  0  0  0  0  0  0  0  0  0  0
    1.4503  -18.3283  -37.7697 H   0  0  0  0  0  0  0  0  0  0  0  0
    0.9494  -19.5562  -38.9814 H   0  0  0  0  0  0  0  0  0  0  0  0
    0.0240  -15.3628  -38.5455 H   0  0  0  0  0  0  0  0  0  0  0  0
   -1.5701  -15.1714  -36.0525 H   0  0  0  0  0  0  0  0  0  0  0  0
   -0.4644  -12.7001  -36.3461 H   0  0  0  0  0  0  0  0  0  0  0  0
    0.7400  -13.6964  -37.2313 H   0  0  0  0  0  0  0  0  0  0  0  0
   -2.4581  -15.0863  -39.1021 H   0  0  0  0  0  0  0  0  0  0  0  0
   -3.4652  -12.4294  -39.4855 H   0  0  0  0  0  0  0  0  0  0  0  0
   -4.0888  -15.1052  -40.7784 H   0  0  0  0  0  0  0  0  0  0  0  0
   -3.1344  -13.7300  -41.4303 H   0  0  0  0  0  0  0  0  0  0  0  0
   -6.4806  -15.1701  -41.0315 H   0  0  0  0  0  0  0  0  0  0  0  0
   -4.3223  -11.6723  -42.1999 H   0  0  0  0  0  0  0  0  0  0  0  0
   -8.4917  -14.3095  -42.1666 H   0  0  0  0  0  0  0  0  0  0  0  0
   -6.3278  -10.8116  -43.3421 H   0  0  0  0  0  0  0  0  0  0  0  0
   -9.3640  -12.6409  -43.3585 H   0  0  0  0  0  0  0  0  0  0  0  0
   -4.9354  -15.3424  -38.0181 H   0  0  0  0  0  0  0  0  0  0  0  0
   -7.5420  -14.0662  -38.1025 H   0  0  0  0  0  0  0  0  0  0  0  0
   -8.1972  -16.0615  -36.5958 H   0  0  0  0  0  0  0  0  0  0  0  0
   -6.5532  -16.6772  -36.9764 H   0  0  0  0  0  0  0  0  0  0  0  0
   -9.7866  -15.6053  -38.4990 H   0  0  0  0  0  0  0  0  0  0  0  0
   -6.0934  -17.6719  -39.0856 H   0  0  0  0  0  0  0  0  0  0  0  0
  -10.6248  -16.4874  -40.6453 H   0  0  0  0  0  0  0  0  0  0  0  0
   -6.9271  -18.5570  -41.2327 H   0  0  0  0  0  0  0  0  0  0  0  0
   -9.1980  -17.9684  -42.0143 H   0  0  0  0  0  0  0  0  0  0  0  0
   -8.5599  -12.8733  -36.7088 H   0  0  0  0  0  0  0  0  0  0  0  0
   -7.3206  -11.7127  -34.4358 H   0  0  0  0  0  0  0  0  0  0  0  0
   -9.6042  -10.8458  -33.9711 H   0  0  0  0  0  0  0  0  0  0  0  0
  -10.2697  -11.9649  -35.2086 H   0  0  0  0  0  0  0  0  0  0  0  0
   -8.8691  -10.8188  -36.8746 H   0  0  0  0  0  0  0  0  0  0  0  0
   -8.4469   -9.6218  -35.6035 H   0  0  0  0  0  0  0  0  0  0  0  0
   -7.9993  -11.8687  -32.2402 H   0  0  0  0  0  0  0  0  0  0  0  0
   -8.6609  -14.4814  -31.2519 H   0  0  0  0  0  0  0  0  0  0  0  0
   -8.9849  -13.2941  -29.0485 H   0  0  0  0  0  0  0  0  0  0  0  0
   -8.6395  -11.7510  -29.9006 H   0  0  0  0  0  0  0  0  0  0  0  0
   -7.2435  -13.6447  -27.6063 H   0  0  0  0  0  0  0  0  0  0  0  0
   -6.2905  -12.3079  -31.4649 H   0  0  0  0  0  0  0  0  0  0  0  0
   -4.8687  -13.9484  -27.1408 H   0  0  0  0  0  0  0  0  0  0  0  0
   -3.9394  -12.4497  -30.9606 H   0  0  0  0  0  0  0  0  0  0  0  0
   -2.8297  -13.6918  -27.8260 H   0  0  0  0  0  0  0  0  0  0  0  0
  1  2  1  0  0  0  0
  1 96  1  0  0  0  0
  1 97  1  0  0  0  0
  1 98  1  0  0  0  0
  2  3  1  0  0  0  0
  2  5  1  0  0  0  0
  2 99  1  6  0  0  0
  3  4  2  0  0  0  0
  3 11  1  0  0  0  0
  5  6  1  0  0  0  0
  5100  1  0  0  0  0
  5101  1  0  0  0  0
  6  7  1  0  0  0  0
  6  8  2  0  0  0  0
  7  9  2  0  0  0  0
  8 10  1  0  0  0  0
  8102  1  0  0  0  0
  9 10  1  0  0  0  0
  9103  1  0  0  0  0
 10104  1  0  0  0  0
 11 12  1  0  0  0  0
 11 17  1  0  0  0  0
 12 13  1  0  0  0  0
 12 15  1  0  0  0  0
 12105  1  1  0  0  0
 13 14  2  0  0  0  0
 13 18  1  0  0  0  0
 15 16  1  0  0  0  0
 15106  1  0  0  0  0
 15107  1  0  0  0  0
 16 17  1  0  0  0  0
 16108  1  0  0  0  0
 16109  1  0  0  0  0
 17110  1  0  0  0  0
 17111  1  0  0  0  0
 18 19  1  0  0  0  0
 18112  1  0  0  0  0
 19 20  1  0  0  0  0
 19 22  1  0  0  0  0
 19113  1  6  0  0  0
 20 21  2  0  0  0  0
 20 25  1  0  0  0  0
 22 23  1  0  0  0  0
 22 24  1  0  0  0  0
 22114  1  0  0  0  0
 23115  1  0  0  0  0
 23116  1  0  0  0  0
 23117  1  0  0  0  0
 24118  1  0  0  0  0
 24119  1  0  0  0  0
 24120  1  0  0  0  0
 25 26  1  0  0  0  0
 25121  1  0  0  0  0
 26 27  1  0  0  0  0
 26122  1  0  0  0  0
 26123  1  0  0  0  0
 27 28  2  0  0  0  0
 27 29  1  0  0  0  0
 29 30  1  0  0  0  0
 29124  1  0  0  0  0
 30 31  1  0  0  0  0
 30 33  1  0  0  0  0
 30125  1  6  0  0  0
 31 32  2  0  0  0  0
 31 38  1  0  0  0  0
 33 34  1  0  0  0  0
 33126  1  0  0  0  0
 33127  1  0  0  0  0
 34 35  1  0  0  0  0
 34128  1  0  0  0  0
 34129  1  0  0  0  0
 35 36  2  0  0  0  0
 35 37  1  0  0  0  0
 37130  1  0  0  0  0
 37131  1  0  0  0  0
 38 39  1  0  0  0  0
 38132  1  0  0  0  0
 39 40  1  0  0  0  0
 39 42  1  0  0  0  0
 39133  1  6  0  0  0
 40 41  2  0  0  0  0
 40 43  1  0  0  0  0
 42134  1  0  0  0  0
 42135  1  0  0  0  0
 42136  1  0  0  0  0
 43 44  1  0  0  0  0
 43137  1  0  0  0  0
 44 45  1  0  0  0  0
 44 47  1  0  0  0  0
 44138  1  1  0  0  0
 45 46  2  0  0  0  0
 45 51  1  0  0  0  0
 47 48  1  0  0  0  0
 47139  1  0  0  0  0
 47140  1  0  0  0  0
 48 49  1  0  0  0  0
 48 50  2  0  0  0  0
 51 52  1  0  0  0  0
 51141  1  0  0  0  0
 52 53  1  0  0  0  0
 52 55  1  0  0  0  0
 52142  1  6  0  0  0
 53 54  2  0  0  0  0
 53 63  1  0  0  0  0
 55 56  1  0  0  0  0
 55143  1  0  0  0  0
 55144  1  0  0  0  0
 56 57  2  0  0  0  0
 56 58  1  0  0  0  0
 57 59  1  0  0  0  0
 57145  1  0  0  0  0
 58 60  2  0  0  0  0
 58146  1  0  0  0  0
 59 61  2  0  0  0  0
 59147  1  0  0  0  0
 60 61  1  0  0  0  0
 60148  1  0  0  0  0
 61 62  1  0  0  0  0
 62149  1  0  0  0  0
 63 64  1  0  0  0  0
 63150  1  0  0  0  0
 64 65  1  0  0  0  0
 64 67  1  0  0  0  0
 64151  1  6  0  0  0
 65 66  2  0  0  0  0
 65 74  1  0  0  0  0
 67 68  1  0  0  0  0
 67152  1  0  0  0  0
 67153  1  0  0  0  0
 68 69  2  0  0  0  0
 68 70  1  0  0  0  0
 69 71  1  0  0  0  0
 69154  1  0  0  0  0
 70 72  2  0  0  0  0
 70155  1  0  0  0  0
 71 73  2  0  0  0  0
 71156  1  0  0  0  0
 72 73  1  0  0  0  0
 72157  1  0  0  0  0
 73158  1  0  0  0  0
 74 75  1  0  0  0  0
 74159  1  0  0  0  0
 75 76  1  0  0  0  0
 75 78  1  0  0  0  0
 75160  1  1  0  0  0
 76 77  2  0  0  0  0
 76 83  1  0  0  0  0
 78 79  1  0  0  0  0
 78161  1  0  0  0  0
 78162  1  0  0  0  0
 79 80  1  0  0  0  0
 79163  1  0  0  0  0
 79164  1  0  0  0  0
 80 81  1  0  0  0  0
 80 82  2  0  0  0  0
 83 84  1  0  0  0  0
 83165  1  0  0  0  0
 84 85  1  0  0  0  0
 84 87  1  0  0  0  0
 84166  1  6  0  0  0
 85 86  1  0  0  0  0
 85 95  2  0  0  0  0
 87 88  1  0  0  0  0
 87167  1  0  0  0  0
 87168  1  0  0  0  0
 88 89  2  0  0  0  0
 88 90  1  0  0  0  0
 89 91  1  0  0  0  0
 89169  1  0  0  0  0
 90 92  2  0  0  0  0
 90170  1  0  0  0  0
 91 93  2  0  0  0  0
 91171  1  0  0  0  0
 92 93  1  0  0  0  0
 92172  1  0  0  0  0
 93 94  1  0  0  0  0
 94173  1  0  0  0  0
M  CHG  4   1   1  49  -1  81  -1  86  -1
M  END
