4prj_ligand
 OpenBabel08222323353D

 47 51  0  0  0  0  0  0  0  0999 V2000
   48.3550   19.2110   25.9740 C   0  0  0  0  0  0  0  0  0  0  0  0
   48.6670   19.0550   24.6230 C   0  0  0  0  0  0  0  0  0  0  0  0
   49.9970   18.8810   24.2380 C   0  0  0  0  0  0  0  0  0  0  0  0
   51.0130   18.8700   25.1860 C   0  0  0  0  0  0  0  0  0  0  0  0
   50.7140   19.0090   26.5490 C   0  0  0  0  0  0  0  0  0  0  0  0
   49.3680   19.1970   26.9350 C   0  0  0  0  0  0  0  0  0  0  0  0
   51.7960   18.9710   27.4980 C   0  0  0  0  0  0  0  0  0  0  0  0
   52.6780   18.9370   28.2220 N   0  0  0  0  0  0  0  0  0  0  0  0
   50.3600   18.6870   22.7880 C   0  0  0  0  0  0  0  0  0  0  0  0
   50.7840   17.3100   22.5100 N   0  0  0  0  0  0  0  0  0  0  0  0
   51.0220   16.8250   21.2740 C   0  0  0  0  0  0  0  0  0  0  0  0
   51.3920   15.5290   21.3950 C   0  0  0  0  0  0  0  0  0  0  0  0
   51.3710   15.2060   22.7630 C   0  0  0  0  0  0  0  0  0  0  0  0
   51.0050   16.2620   23.4260 N   0  0  0  0  0  0  0  0  0  0  0  0
   51.7180   14.6990   20.3050 N   0  0  0  0  0  0  0  0  0  0  0  0
   52.2740   13.4710   20.3990 C   0  0  0  0  0  0  0  0  0  0  0  0
   52.5180   12.9500   21.4750 O   0  0  0  0  0  0  0  0  0  0  0  0
   52.5620   12.7310   19.1590 C   0  0  0  0  0  0  0  0  0  0  0  0
   52.9430   11.3170   19.0710 C   0  0  0  0  0  0  0  0  0  0  0  0
   53.1740   10.2870   19.9960 C   0  0  0  0  0  0  0  0  0  0  0  0
   53.4970    9.0350   19.5490 C   0  0  0  0  0  0  0  0  0  0  0  0
   53.6430    8.7820   18.1700 C   0  0  0  0  0  0  0  0  0  0  0  0
   53.4240    9.8020   17.2420 C   0  0  0  0  0  0  0  0  0  0  0  0
   53.0660   11.0810   17.6790 C   0  0  0  0  0  0  0  0  0  0  0  0
   52.7680   12.2710   17.0630 N   0  0  0  0  0  0  0  0  0  0  0  0
   52.4730   13.1740   17.9240 N   0  0  0  0  0  0  0  0  0  0  0  0
   53.9680    7.4060   17.7060 C   0  0  0  0  0  0  0  0  0  0  0  0
   53.4860    6.8060   16.5740 C   0  0  0  0  0  0  0  0  0  0  0  0
   53.9760    5.5550   16.5250 N   0  0  0  0  0  0  0  0  0  0  0  0
   54.7670    5.3650   17.6630 N   0  0  0  0  0  0  0  0  0  0  0  0
   54.7630    6.4560   18.3770 C   0  0  0  0  0  0  0  0  0  0  0  0
   47.3231   19.3435   26.2785 H   0  0  0  0  0  0  0  0  0  0  0  0
   47.8808   19.0689   23.8768 H   0  0  0  0  0  0  0  0  0  0  0  0
   52.0433   18.7532   24.8699 H   0  0  0  0  0  0  0  0  0  0  0  0
   49.1205   19.3310   27.9818 H   0  0  0  0  0  0  0  0  0  0  0  0
   51.1829   19.3709   22.5327 H   0  0  0  0  0  0  0  0  0  0  0  0
   49.4826   18.9211   22.1672 H   0  0  0  0  0  0  0  0  0  0  0  0
   50.9320   17.3798   20.3412 H   0  0  0  0  0  0  0  0  0  0  0  0
   51.6190   14.2369   23.1934 H   0  0  0  0  0  0  0  0  0  0  0  0
   51.5223   15.0463   19.3879 H   0  0  0  0  0  0  0  0  0  0  0  0
   53.0969   10.4826   21.0594 H   0  0  0  0  0  0  0  0  0  0  0  0
   53.6419    8.2308   20.2613 H   0  0  0  0  0  0  0  0  0  0  0  0
   53.5316    9.6022   16.1820 H   0  0  0  0  0  0  0  0  0  0  0  0
   52.7798   12.4189   16.0437 H   0  0  0  0  0  0  0  0  0  0  0  0
   52.8219    7.2622   15.8413 H   0  0  0  0  0  0  0  0  0  0  0  0
   53.8007    4.8618   15.7836 H   0  0  0  0  0  0  0  0  0  0  0  0
   55.2815    6.6060   19.3228 H   0  0  0  0  0  0  0  0  0  0  0  0
  1  2  2  0  0  0  0
  1  6  1  0  0  0  0
  1 32  1  0  0  0  0
  2  3  1  0  0  0  0
  2 33  1  0  0  0  0
  3  4  2  0  0  0  0
  3  9  1  0  0  0  0
  4  5  1  0  0  0  0
  4 34  1  0  0  0  0
  5  6  2  0  0  0  0
  5  7  1  0  0  0  0
  6 35  1  0  0  0  0
  7  8  3  0  0  0  0
  9 10  1  0  0  0  0
  9 36  1  0  0  0  0
  9 37  1  0  0  0  0
 10 11  1  0  0  0  0
 10 14  1  0  0  0  0
 11 12  2  0  0  0  0
 11 38  1  0  0  0  0
 12 13  1  0  0  0  0
 12 15  1  0  0  0  0
 13 14  2  0  0  0  0
 13 39  1  0  0  0  0
 15 16  1  0  0  0  0
 15 40  1  0  0  0  0
 16 17  2  0  0  0  0
 16 18  1  0  0  0  0
 18 19  1  0  0  0  0
 18 26  2  0  0  0  0
 19 20  2  0  0  0  0
 19 24  1  0  0  0  0
 20 21  1  0  0  0  0
 20 41  1  0  0  0  0
 21 22  2  0  0  0  0
 21 42  1  0  0  0  0
 22 23  1  0  0  0  0
 22 27  1  0  0  0  0
 23 24  2  0  0  0  0
 23 43  1  0  0  0  0
 24 25  1  0  0  0  0
 25 26  1  0  0  0  0
 25 44  1  0  0  0  0
 27 28  2  0  0  0  0
 27 31  1  0  0  0  0
 28 29  1  0  0  0  0
 28 45  1  0  0  0  0
 29 30  1  0  0  0  0
 29 46  1  0  0  0  0
 30 31  2  0  0  0  0
 31 47  1  0  0  0  0
M  END
