4ps3_ligand
 OpenBabel08222323353D

 55 58  0  0  0  0  0  0  0  0999 V2000
   12.9370   57.6560   22.1700 C   0  0  0  0  0  0  0  0  0  0  0  0
   11.5550   57.8820   21.5520 C   0  0  0  0  0  0  0  0  0  0  0  0
   11.3410   59.3100   21.0820 C   0  0  0  0  0  0  0  0  0  0  0  0
   11.3630   60.2260   22.2060 N   0  0  0  0  0  0  0  0  0  0  0  0
   12.0760   61.3970   22.2460 C   0  0  0  0  0  0  0  0  0  0  0  0
   11.8110   61.9270   23.4560 C   0  0  0  0  0  0  0  0  0  0  0  0
   10.9600   61.1140   24.1250 N   0  0  0  0  0  0  0  0  0  0  0  0
   10.6870   60.0780   23.3700 C   0  0  0  0  0  0  0  0  0  0  0  0
   12.3590   63.2210   23.9780 C   0  0  0  0  0  0  0  0  0  0  0  0
   13.7190   63.4840   23.3410 C   0  0  0  0  0  0  0  0  0  0  0  0
   14.6480   62.6160   24.0560 N   0  0  0  0  0  0  0  0  0  0  0  0
   15.9320   62.5220   23.6810 C   0  0  0  0  0  0  0  0  0  0  0  0
   16.3280   63.2060   22.7450 O   0  0  0  0  0  0  0  0  0  0  0  0
   16.7450   61.6670   24.3560 N   0  0  0  0  0  0  0  0  0  0  0  0
   18.0670   61.4730   23.9830 C   0  0  0  0  0  0  0  0  0  0  0  0
   18.8200   60.5220   24.4200 N   0  0  0  0  0  0  0  0  0  0  0  0
   20.0750   60.4590   23.9450 C   0  0  0  0  0  0  0  0  0  0  0  0
   21.1010   59.5680   24.2760 C   0  0  0  0  0  0  0  0  0  0  0  0
   22.3110   59.7200   23.6710 C   0  0  0  0  0  0  0  0  0  0  0  0
   22.5830   60.7180   22.7200 C   0  0  0  0  0  0  0  0  0  0  0  0
   21.5780   61.5780   22.3740 C   0  0  0  0  0  0  0  0  0  0  0  0
   20.3470   61.4540   22.9950 C   0  0  0  0  0  0  0  0  0  0  0  0
   18.9120   62.4280   22.7680 S   0  0  0  0  0  0  0  0  0  0  0  0
   23.8970   60.8430   22.0550 C   0  0  0  0  0  0  0  0  0  0  0  0
   24.0300   61.5360   20.8390 C   0  0  0  0  0  0  0  0  0  0  0  0
   25.3090   61.5990   20.2340 C   0  0  0  0  0  0  0  0  0  0  0  0
   26.4020   60.9800   20.8460 C   0  0  0  0  0  0  0  0  0  0  0  0
   26.2350   60.3390   21.9920 N   0  0  0  0  0  0  0  0  0  0  0  0
   25.0480   60.2490   22.6000 C   0  0  0  0  0  0  0  0  0  0  0  0
   25.5150   62.2560   19.0570 O   0  0  0  0  0  0  0  0  0  0  0  0
   24.5230   62.1230   18.0380 C   0  0  0  0  0  0  0  0  0  0  0  0
   13.0290   56.6073   22.4889 H   0  0  0  0  0  0  0  0  0  0  0  0
   13.0617   58.3163   23.0409 H   0  0  0  0  0  0  0  0  0  0  0  0
   13.7135   57.8819   21.4244 H   0  0  0  0  0  0  0  0  0  0  0  0
   10.7906   57.6430   22.3060 H   0  0  0  0  0  0  0  0  0  0  0  0
   11.4424   57.2087   20.6895 H   0  0  0  0  0  0  0  0  0  0  0  0
   10.3669   59.3820   20.5761 H   0  0  0  0  0  0  0  0  0  0  0  0
   12.1409   59.5826   20.3779 H   0  0  0  0  0  0  0  0  0  0  0  0
   12.7173   61.8091   21.4683 H   0  0  0  0  0  0  0  0  0  0  0  0
   10.0336   59.2471   23.6318 H   0  0  0  0  0  0  0  0  0  0  0  0
   12.4705   63.1590   25.0706 H   0  0  0  0  0  0  0  0  0  0  0  0
   11.6701   64.0406   23.7256 H   0  0  0  0  0  0  0  0  0  0  0  0
   14.0049   64.5392   23.4628 H   0  0  0  0  0  0  0  0  0  0  0  0
   13.6997   63.2305   22.2708 H   0  0  0  0  0  0  0  0  0  0  0  0
   14.3226   62.0833   24.8372 H   0  0  0  0  0  0  0  0  0  0  0  0
   16.3811   61.1654   25.1409 H   0  0  0  0  0  0  0  0  0  0  0  0
   20.9367   58.7754   24.9970 H   0  0  0  0  0  0  0  0  0  0  0  0
   23.1073   59.0344   23.9372 H   0  0  0  0  0  0  0  0  0  0  0  0
   21.7425   62.3446   21.6254 H   0  0  0  0  0  0  0  0  0  0  0  0
   23.1732   62.0112   20.3751 H   0  0  0  0  0  0  0  0  0  0  0  0
   27.3819   61.0245   20.3846 H   0  0  0  0  0  0  0  0  0  0  0  0
   24.9715   59.7054   23.5347 H   0  0  0  0  0  0  0  0  0  0  0  0
   24.8248   62.7045   17.1544 H   0  0  0  0  0  0  0  0  0  0  0  0
   23.5596   62.4990   18.4128 H   0  0  0  0  0  0  0  0  0  0  0  0
   24.4206   61.0631   17.7620 H   0  0  0  0  0  0  0  0  0  0  0  0
  1  2  1  0  0  0  0
  1 32  1  0  0  0  0
  1 33  1  0  0  0  0
  1 34  1  0  0  0  0
  2  3  1  0  0  0  0
  2 35  1  0  0  0  0
  2 36  1  0  0  0  0
  3  4  1  0  0  0  0
  3 37  1  0  0  0  0
  3 38  1  0  0  0  0
  4  5  1  0  0  0  0
  4  8  1  0  0  0  0
  5  6  2  0  0  0  0
  5 39  1  0  0  0  0
  6  7  1  0  0  0  0
  6  9  1  0  0  0  0
  7  8  2  0  0  0  0
  8 40  1  0  0  0  0
  9 10  1  0  0  0  0
  9 41  1  0  0  0  0
  9 42  1  0  0  0  0
 10 11  1  0  0  0  0
 10 43  1  0  0  0  0
 10 44  1  0  0  0  0
 11 12  1  0  0  0  0
 11 45  1  0  0  0  0
 12 13  2  0  0  0  0
 12 14  1  0  0  0  0
 14 15  1  0  0  0  0
 14 46  1  0  0  0  0
 15 16  2  0  0  0  0
 15 23  1  0  0  0  0
 16 17  1  0  0  0  0
 17 18  2  0  0  0  0
 17 22  1  0  0  0  0
 18 19  1  0  0  0  0
 18 47  1  0  0  0  0
 19 20  2  0  0  0  0
 19 48  1  0  0  0  0
 20 21  1  0  0  0  0
 20 24  1  0  0  0  0
 21 22  2  0  0  0  0
 21 49  1  0  0  0  0
 22 23  1  0  0  0  0
 24 25  2  0  0  0  0
 24 29  1  0  0  0  0
 25 26  1  0  0  0  0
 25 50  1  0  0  0  0
 26 27  2  0  0  0  0
 26 30  1  0  0  0  0
 27 28  1  0  0  0  0
 27 51  1  0  0  0  0
 28 29  2  0  0  0  0
 29 52  1  0  0  0  0
 30 31  1  0  0  0  0
 31 53  1  0  0  0  0
 31 54  1  0  0  0  0
 31 55  1  0  0  0  0
M  END
