4ps7_ligand
 OpenBabel08222323353D

 30 32  0  0  0  0  0  0  0  0999 V2000
   14.3590   62.7310   23.4250 C   0  0  0  0  0  0  0  0  0  0  0  0
   15.8190   62.7030   23.0420 C   0  0  0  0  0  0  0  0  0  0  0  0
   16.2100   63.4750   22.1950 O   0  0  0  0  0  0  0  0  0  0  0  0
   16.6580   61.8250   23.6610 N   0  0  0  0  0  0  0  0  0  0  0  0
   18.0160   61.6340   23.4120 C   0  0  0  0  0  0  0  0  0  0  0  0
   18.7410   60.7780   24.0690 N   0  0  0  0  0  0  0  0  0  0  0  0
   20.0280   60.6600   23.7270 C   0  0  0  0  0  0  0  0  0  0  0  0
   21.0090   59.8160   24.2630 C   0  0  0  0  0  0  0  0  0  0  0  0
   22.2890   59.8330   23.7650 C   0  0  0  0  0  0  0  0  0  0  0  0
   22.6370   60.6940   22.7180 C   0  0  0  0  0  0  0  0  0  0  0  0
   21.6770   61.5380   22.1850 C   0  0  0  0  0  0  0  0  0  0  0  0
   20.3880   61.5290   22.6800 C   0  0  0  0  0  0  0  0  0  0  0  0
   18.9800   62.4730   22.1900 S   0  0  0  0  0  0  0  0  0  0  0  0
   23.9970   60.7100   22.1300 C   0  0  0  0  0  0  0  0  0  0  0  0
   24.1820   61.2290   20.8230 C   0  0  0  0  0  0  0  0  0  0  0  0
   25.4580   61.2200   20.2480 C   0  0  0  0  0  0  0  0  0  0  0  0
   26.5150   60.6910   20.9660 C   0  0  0  0  0  0  0  0  0  0  0  0
   26.2900   60.1910   22.1760 N   0  0  0  0  0  0  0  0  0  0  0  0
   25.1020   60.1660   22.7740 C   0  0  0  0  0  0  0  0  0  0  0  0
   14.1689   61.9746   24.2007 H   0  0  0  0  0  0  0  0  0  0  0  0
   13.7435   62.5114   22.5402 H   0  0  0  0  0  0  0  0  0  0  0  0
   14.1008   63.7273   23.8133 H   0  0  0  0  0  0  0  0  0  0  0  0
   16.2534   61.2531   24.3746 H   0  0  0  0  0  0  0  0  0  0  0  0
   20.7564   59.1451   25.0761 H   0  0  0  0  0  0  0  0  0  0  0  0
   23.0376   59.1725   24.1874 H   0  0  0  0  0  0  0  0  0  0  0  0
   21.9389   62.2091   21.3750 H   0  0  0  0  0  0  0  0  0  0  0  0
   23.3392   61.6307   20.2721 H   0  0  0  0  0  0  0  0  0  0  0  0
   25.6156   61.6221   19.2537 H   0  0  0  0  0  0  0  0  0  0  0  0
   27.5146   60.6844   20.5467 H   0  0  0  0  0  0  0  0  0  0  0  0
   24.9963   59.7238   23.7581 H   0  0  0  0  0  0  0  0  0  0  0  0
  1  2  1  0  0  0  0
  1 20  1  0  0  0  0
  1 21  1  0  0  0  0
  1 22  1  0  0  0  0
  2  3  2  0  0  0  0
  2  4  1  0  0  0  0
  4  5  1  0  0  0  0
  4 23  1  0  0  0  0
  5  6  2  0  0  0  0
  5 13  1  0  0  0  0
  6  7  1  0  0  0  0
  7  8  2  0  0  0  0
  7 12  1  0  0  0  0
  8  9  1  0  0  0  0
  8 24  1  0  0  0  0
  9 10  2  0  0  0  0
  9 25  1  0  0  0  0
 10 11  1  0  0  0  0
 10 14  1  0  0  0  0
 11 12  2  0  0  0  0
 11 26  1  0  0  0  0
 12 13  1  0  0  0  0
 14 15  2  0  0  0  0
 14 19  1  0  0  0  0
 15 16  1  0  0  0  0
 15 27  1  0  0  0  0
 16 17  2  0  0  0  0
 16 28  1  0  0  0  0
 17 18  1  0  0  0  0
 17 29  1  0  0  0  0
 18 19  2  0  0  0  0
 19 30  1  0  0  0  0
M  END
