4ps8_ligand
 OpenBabel08222323353D

 38 40  0  0  0  0  0  0  0  0999 V2000
   14.1620   62.8420   23.6670 C   0  0  0  0  0  0  0  0  0  0  0  0
   15.6100   62.8520   23.3040 C   0  0  0  0  0  0  0  0  0  0  0  0
   15.9800   63.7080   22.5170 O   0  0  0  0  0  0  0  0  0  0  0  0
   16.4130   61.9230   23.8960 N   0  0  0  0  0  0  0  0  0  0  0  0
   17.7700   61.7140   23.6550 C   0  0  0  0  0  0  0  0  0  0  0  0
   18.4850   60.7760   24.1930 N   0  0  0  0  0  0  0  0  0  0  0  0
   19.7690   60.6840   23.7820 C   0  0  0  0  0  0  0  0  0  0  0  0
   20.7790   59.7770   24.1830 C   0  0  0  0  0  0  0  0  0  0  0  0
   22.0330   59.8460   23.6590 C   0  0  0  0  0  0  0  0  0  0  0  0
   22.3790   60.8190   22.7030 C   0  0  0  0  0  0  0  0  0  0  0  0
   21.4110   61.7120   22.2750 C   0  0  0  0  0  0  0  0  0  0  0  0
   20.1270   61.6460   22.8180 C   0  0  0  0  0  0  0  0  0  0  0  0
   18.7210   62.6410   22.4930 S   0  0  0  0  0  0  0  0  0  0  0  0
   23.7290   60.8170   22.0890 C   0  0  0  0  0  0  0  0  0  0  0  0
   23.8420   61.2770   20.7660 C   0  0  0  0  0  0  0  0  0  0  0  0
   25.0830   61.2440   20.1370 C   0  0  0  0  0  0  0  0  0  0  0  0
   26.1940   60.6950   20.8270 C   0  0  0  0  0  0  0  0  0  0  0  0
   26.0370   60.2310   22.0740 N   0  0  0  0  0  0  0  0  0  0  0  0
   24.8640   60.2610   22.7030 C   0  0  0  0  0  0  0  0  0  0  0  0
   27.4320   60.6480   20.2400 O   0  0  0  0  0  0  0  0  0  0  0  0
   28.1360   59.4060   20.2550 C   0  0  0  0  0  0  0  0  0  0  0  0
   25.1750   61.7160   18.8640 O   0  0  0  0  0  0  0  0  0  0  0  0
   25.1480   63.1230   18.6240 C   0  0  0  0  0  0  0  0  0  0  0  0
   13.9680   62.0258   24.3785 H   0  0  0  0  0  0  0  0  0  0  0  0
   13.5578   62.6896   22.7606 H   0  0  0  0  0  0  0  0  0  0  0  0
   13.8933   63.8032   24.1295 H   0  0  0  0  0  0  0  0  0  0  0  0
   15.9829   61.3283   24.5753 H   0  0  0  0  0  0  0  0  0  0  0  0
   20.5499   59.0152   24.9193 H   0  0  0  0  0  0  0  0  0  0  0  0
   22.7830   59.1348   23.9857 H   0  0  0  0  0  0  0  0  0  0  0  0
   21.6487   62.4566   21.5239 H   0  0  0  0  0  0  0  0  0  0  0  0
   22.9717   61.6536   20.2409 H   0  0  0  0  0  0  0  0  0  0  0  0
   24.7834   59.8506   23.7031 H   0  0  0  0  0  0  0  0  0  0  0  0
   29.1055   59.5280   19.7498 H   0  0  0  0  0  0  0  0  0  0  0  0
   27.5430   58.6420   19.7309 H   0  0  0  0  0  0  0  0  0  0  0  0
   28.3020   59.0912   21.2958 H   0  0  0  0  0  0  0  0  0  0  0  0
   25.2332   63.3124   17.5438 H   0  0  0  0  0  0  0  0  0  0  0  0
   25.9895   63.6005   19.1474 H   0  0  0  0  0  0  0  0  0  0  0  0
   24.2006   63.5403   18.9958 H   0  0  0  0  0  0  0  0  0  0  0  0
  1  2  1  0  0  0  0
  1 24  1  0  0  0  0
  1 25  1  0  0  0  0
  1 26  1  0  0  0  0
  2  3  2  0  0  0  0
  2  4  1  0  0  0  0
  4  5  1  0  0  0  0
  4 27  1  0  0  0  0
  5  6  2  0  0  0  0
  5 13  1  0  0  0  0
  6  7  1  0  0  0  0
  7  8  2  0  0  0  0
  7 12  1  0  0  0  0
  8  9  1  0  0  0  0
  8 28  1  0  0  0  0
  9 10  2  0  0  0  0
  9 29  1  0  0  0  0
 10 11  1  0  0  0  0
 10 14  1  0  0  0  0
 11 12  2  0  0  0  0
 11 30  1  0  0  0  0
 12 13  1  0  0  0  0
 14 15  2  0  0  0  0
 14 19  1  0  0  0  0
 15 16  1  0  0  0  0
 15 31  1  0  0  0  0
 16 17  2  0  0  0  0
 16 22  1  0  0  0  0
 17 18  1  0  0  0  0
 17 20  1  0  0  0  0
 18 19  2  0  0  0  0
 19 32  1  0  0  0  0
 20 21  1  0  0  0  0
 21 33  1  0  0  0  0
 21 34  1  0  0  0  0
 21 35  1  0  0  0  0
 22 23  1  0  0  0  0
 23 36  1  0  0  0  0
 23 37  1  0  0  0  0
 23 38  1  0  0  0  0
M  END
