4psq_ligand
 OpenBabel08222323353D

 48 51  0  0  0  0  0  0  0  0999 V2000
   30.1700    0.1160   -4.5260 Cl  0  0  0  0  0  0  0  0  0  0  0  0
   30.6710   -0.7720   -6.0080 C   0  0  0  0  0  0  0  0  0  0  0  0
   31.9980   -1.1650   -6.1510 C   0  0  0  0  0  0  0  0  0  0  0  0
   32.4080   -1.8500   -7.2890 C   0  0  0  0  0  0  0  0  0  0  0  0
   31.4830   -2.1430   -8.2860 C   0  0  0  0  0  0  0  0  0  0  0  0
   30.1540   -1.7530   -8.1410 C   0  0  0  0  0  0  0  0  0  0  0  0
   29.7360   -1.0550   -7.0000 C   0  0  0  0  0  0  0  0  0  0  0  0
   28.3920   -0.6400   -6.7920 N   0  0  0  0  0  0  0  0  0  0  0  0
   27.7000   -1.6690   -5.9940 C   0  0  0  0  0  0  0  0  0  0  0  0
   26.2570   -1.2740   -5.7000 C   0  0  0  0  0  0  0  0  0  0  0  0
   27.6270   -0.3930   -8.0330 C   0  0  0  0  0  0  0  0  0  0  0  0
   26.2640    0.1820   -7.6690 C   0  0  0  0  0  0  0  0  0  0  0  0
   25.5900   -0.8980   -6.9490 N   0  0  0  0  0  0  0  0  0  0  0  0
   24.4650   -1.5090   -7.3570 C   0  0  0  0  0  0  0  0  0  0  0  0
   23.9620   -2.3970   -6.6900 O   0  0  0  0  0  0  0  0  0  0  0  0
   23.7490   -1.1090   -8.6090 C   0  0  0  0  0  0  0  0  0  0  0  0
   23.3940   -1.8900   -9.7010 C   0  0  0  0  0  0  0  0  0  0  0  0
   23.2770    0.1320   -8.8490 N   0  0  0  0  0  0  0  0  0  0  0  0
   22.6730    0.1330  -10.0550 C   0  0  0  0  0  0  0  0  0  0  0  0
   22.7470   -1.0960  -10.5710 N   0  0  0  0  0  0  0  0  0  0  0  0
   22.1950   -1.4710  -11.8710 C   0  0  0  0  0  0  0  0  0  0  0  0
   23.1730   -1.1890  -12.9920 C   0  0  0  0  0  0  0  0  0  0  0  0
   23.1000    0.0040  -13.7100 C   0  0  0  0  0  0  0  0  0  0  0  0
   24.1480   -2.1330  -13.3170 C   0  0  0  0  0  0  0  0  0  0  0  0
   25.0520   -1.8840  -14.3490 C   0  0  0  0  0  0  0  0  0  0  0  0
   24.9830   -0.6880  -15.0610 C   0  0  0  0  0  0  0  0  0  0  0  0
   24.0070    0.2550  -14.7400 C   0  0  0  0  0  0  0  0  0  0  0  0
   32.7155   -0.9360   -5.3714 H   0  0  0  0  0  0  0  0  0  0  0  0
   33.4426   -2.1542   -7.3990 H   0  0  0  0  0  0  0  0  0  0  0  0
   31.7970   -2.6754   -9.1765 H   0  0  0  0  0  0  0  0  0  0  0  0
   29.4364   -1.9915   -8.9177 H   0  0  0  0  0  0  0  0  0  0  0  0
   28.2348   -1.8021   -5.0420 H   0  0  0  0  0  0  0  0  0  0  0  0
   27.7041   -2.6166   -6.5525 H   0  0  0  0  0  0  0  0  0  0  0  0
   26.2444   -0.4205   -5.0062 H   0  0  0  0  0  0  0  0  0  0  0  0
   25.7294   -2.1248   -5.2442 H   0  0  0  0  0  0  0  0  0  0  0  0
   27.4944   -1.3387   -8.5790 H   0  0  0  0  0  0  0  0  0  0  0  0
   28.1720    0.3226   -8.6660 H   0  0  0  0  0  0  0  0  0  0  0  0
   25.7027    0.4545   -8.5749 H   0  0  0  0  0  0  0  0  0  0  0  0
   26.3749    1.0676   -7.0260 H   0  0  0  0  0  0  0  0  0  0  0  0
   23.6018   -2.9513   -9.8289 H   0  0  0  0  0  0  0  0  0  0  0  0
   22.2030    0.9934  -10.5290 H   0  0  0  0  0  0  0  0  0  0  0  0
   21.2739   -0.8961  -12.0474 H   0  0  0  0  0  0  0  0  0  0  0  0
   21.9607   -2.5457  -11.8632 H   0  0  0  0  0  0  0  0  0  0  0  0
   22.3385    0.7365  -13.4679 H   0  0  0  0  0  0  0  0  0  0  0  0
   24.2028   -3.0641  -12.7646 H   0  0  0  0  0  0  0  0  0  0  0  0
   25.8079   -2.6202  -14.5973 H   0  0  0  0  0  0  0  0  0  0  0  0
   25.6861   -0.4912  -15.8622 H   0  0  0  0  0  0  0  0  0  0  0  0
   23.9529    1.1860  -15.2926 H   0  0  0  0  0  0  0  0  0  0  0  0
  1  2  1  0  0  0  0
  2  3  2  0  0  0  0
  2  7  1  0  0  0  0
  3  4  1  0  0  0  0
  3 28  1  0  0  0  0
  4  5  2  0  0  0  0
  4 29  1  0  0  0  0
  5  6  1  0  0  0  0
  5 30  1  0  0  0  0
  6  7  2  0  0  0  0
  6 31  1  0  0  0  0
  7  8  1  0  0  0  0
  8  9  1  0  0  0  0
  8 11  1  0  0  0  0
  9 10  1  0  0  0  0
  9 32  1  0  0  0  0
  9 33  1  0  0  0  0
 10 13  1  0  0  0  0
 10 34  1  0  0  0  0
 10 35  1  0  0  0  0
 11 12  1  0  0  0  0
 11 36  1  0  0  0  0
 11 37  1  0  0  0  0
 12 13  1  0  0  0  0
 12 38  1  0  0  0  0
 12 39  1  0  0  0  0
 13 14  1  0  0  0  0
 14 15  2  0  0  0  0
 14 16  1  0  0  0  0
 16 17  2  0  0  0  0
 16 18  1  0  0  0  0
 17 20  1  0  0  0  0
 17 40  1  0  0  0  0
 18 19  2  0  0  0  0
 19 20  1  0  0  0  0
 19 41  1  0  0  0  0
 20 21  1  0  0  0  0
 21 22  1  0  0  0  0
 21 42  1  0  0  0  0
 21 43  1  0  0  0  0
 22 23  2  0  0  0  0
 22 24  1  0  0  0  0
 23 27  1  0  0  0  0
 23 44  1  0  0  0  0
 24 25  2  0  0  0  0
 24 45  1  0  0  0  0
 25 26  1  0  0  0  0
 25 46  1  0  0  0  0
 26 27  2  0  0  0  0
 26 47  1  0  0  0  0
 27 48  1  0  0  0  0
M  END
