4puk_ligand
 OpenBabel08222323353D

 28 30  0  0  1  0  0  0  0  0999 V2000
  -16.9220   18.0620  -17.8130 N   0  0  0  0  0  0  0  0  0  0  0  0
  -18.9750   18.6410  -18.4950 N   0  0  0  0  0  0  0  0  0  0  0  0
  -18.1170   18.5000  -17.4600 C   0  0  0  0  0  0  0  0  0  0  0  0
  -17.5360   18.7190  -15.0930 C   0  0  0  0  0  0  0  0  0  0  0  0
  -18.2740   18.2920  -19.6380 C   0  0  0  0  0  0  0  0  0  0  0  0
  -18.5840   18.3270  -20.9790 C   0  0  0  0  0  0  0  0  0  0  0  0
  -17.6240   17.9730  -21.9150 C   0  0  0  0  0  0  0  0  0  0  0  0
  -15.6250   17.4010  -23.7160 C   0  0  2  0  0  3  0  0  0  0  0  0
  -16.3590   17.5340  -21.5030 C   0  0  0  0  0  0  0  0  0  0  0  0
  -16.0420   17.4940  -20.1280 C   0  0  0  0  0  0  0  0  0  0  0  0
  -17.0050   17.9150  -19.2030 C   0  0  0  0  0  0  0  0  0  0  0  0
  -18.4570   18.8110  -16.2110 N   0  0  0  0  0  0  0  0  0  0  0  0
  -17.8970   18.1150  -23.3500 C   0  0  0  0  0  0  0  0  0  0  0  0
  -18.9790   18.4690  -23.8010 O   0  0  0  0  0  0  0  0  0  0  0  0
  -16.8420   17.8330  -24.1710 N   0  0  0  0  0  0  0  0  0  0  0  0
  -14.6810   17.1410  -24.6370 N   0  0  0  0  0  0  0  0  0  0  0  0
  -15.3590   17.2300  -22.4210 N   0  0  0  0  0  0  0  0  0  0  0  0
  -16.1131   17.8718  -17.2043 H   0  0  0  0  0  0  0  0  0  0  0  0
  -18.0481   19.0277  -14.1697 H   0  0  0  0  0  0  0  0  0  0  0  0
  -16.6743   19.3788  -15.2725 H   0  0  0  0  0  0  0  0  0  0  0  0
  -17.1876   17.6808  -14.9894 H   0  0  0  0  0  0  0  0  0  0  0  0
  -19.5736   18.6298  -21.3015 H   0  0  0  0  0  0  0  0  0  0  0  0
  -15.0717   17.1441  -19.7947 H   0  0  0  0  0  0  0  0  0  0  0  0
  -19.4188   19.1320  -16.0295 H   0  0  0  0  0  0  0  0  0  0  0  0
  -16.9652   17.9482  -25.1567 H   0  0  0  0  0  0  0  0  0  0  0  0
  -13.7500   16.8137  -24.3420 H   0  0  0  0  0  0  0  0  0  0  0  0
  -14.8887   17.2691  -25.6377 H   0  0  0  0  0  0  0  0  0  0  0  0
  -14.4406   16.8832  -22.1094 H   0  0  0  0  0  0  0  0  0  0  0  0
  1  3  1  0  0  0  0
  1 18  1  0  0  0  0
  2  3  2  0  0  0  0
  3 12  1  0  0  0  0
  4 19  1  0  0  0  0
  4 20  1  0  0  0  0
  4 21  1  0  0  0  0
  5  2  1  0  0  0  0
  5 11  1  0  0  0  0
  6  5  2  0  0  0  0
  6 22  1  0  0  0  0
  7  6  1  0  0  0  0
  7 13  1  0  0  0  0
  8 15  1  0  0  0  0
  8 16  1  6  0  0  0
  9  7  2  0  0  0  0
  9 10  1  0  0  0  0
  9 17  1  0  0  0  0
 10 11  2  0  0  0  0
 10 23  1  0  0  0  0
 11  1  1  0  0  0  0
 12  4  1  0  0  0  0
 12 24  1  0  0  0  0
 13 14  2  0  0  0  0
 13 15  1  0  0  0  0
 15 25  1  0  0  0  0
 16 26  1  0  0  0  0
 16 27  1  0  0  0  0
 17  8  1  0  0  0  0
 17 28  1  0  0  0  0
M  END
