4pv0_ligand
 OpenBabel08222323353D

 61 65  0  0  0  0  0  0  0  0999 V2000
   -6.7710    6.8090   13.4730 O   0  5  0  0  0  0  0  0  0  0  0  0
   -6.5350    5.8600   12.7290 C   0  0  0  0  0  0  0  0  0  0  0  0
   -7.5620    5.2750   12.0290 O   0  0  0  0  0  0  0  0  0  0  0  0
   -5.1470    5.3670   12.5470 C   0  0  0  0  0  0  0  0  0  0  0  0
   -4.1580    5.7820   13.4360 C   0  0  0  0  0  0  0  0  0  0  0  0
   -2.8620    5.3520   13.2820 C   0  0  0  0  0  0  0  0  0  0  0  0
   -4.8310    4.5110   11.4840 C   0  0  0  0  0  0  0  0  0  0  0  0
   -3.5200    4.0700   11.3320 C   0  0  0  0  0  0  0  0  0  0  0  0
   -2.5250    4.4950   12.2370 C   0  0  0  0  0  0  0  0  0  0  0  0
   -1.1780    4.1150   12.1520 N   0  0  0  0  0  0  0  0  0  0  0  0
   -0.5120    3.6910   10.9940 C   0  0  0  0  0  0  0  0  0  0  0  0
   -1.0300    3.5640    9.8950 O   0  0  0  0  0  0  0  0  0  0  0  0
    0.8930    3.3350   11.1120 C   0  0  0  0  0  0  0  0  0  0  0  0
    1.7690    3.8320   10.1700 C   0  0  0  0  0  0  0  0  0  0  0  0
    3.0970    3.4980   10.2470 C   0  0  0  0  0  0  0  0  0  0  0  0
    1.3210    2.5140   12.1340 C   0  0  0  0  0  0  0  0  0  0  0  0
    2.6530    2.1700   12.2010 C   0  0  0  0  0  0  0  0  0  0  0  0
    3.5390    2.6730   11.2600 C   0  0  0  0  0  0  0  0  0  0  0  0
    3.1090    1.2860   13.3080 C   0  0  0  0  0  0  0  0  0  0  0  0
    4.3940    1.3420   13.7970 C   0  0  0  0  0  3  0  0  0  0  0  0
    2.1880    0.4030   13.8570 N   0  0  0  0  0  0  0  0  0  0  0  0
    2.5010   -0.4480   14.8820 C   0  0  0  0  0  0  0  0  0  0  0  0
    3.8060   -0.3620   15.3230 C   0  0  0  0  0  0  0  0  0  0  0  0
    4.3970   -1.0370   16.3290 N   0  0  0  0  0  0  0  0  0  0  0  0
    5.6610   -0.5880   16.3800 C   0  0  0  0  0  0  0  0  0  0  0  0
    5.8300    0.3700   15.4190 C   0  0  0  0  0  0  0  0  0  0  0  0
    4.6920    0.5000   14.7710 N   0  0  0  0  0  0  0  0  0  0  0  0
    1.5850   -1.3660   15.4920 N   0  0  0  0  0  0  0  0  0  0  0  0
    0.2230   -1.6780   15.3370 C   0  0  0  0  0  0  0  0  0  0  0  0
   -0.5050   -1.0030   14.3540 C   0  0  0  0  0  0  0  0  0  0  0  0
   -1.8400   -1.2140   14.1320 C   0  0  0  0  0  0  0  0  0  0  0  0
   -2.5620   -0.5510   13.1460 O   0  0  0  0  0  0  0  0  0  0  0  0
   -2.2190    0.5890   12.3620 C   0  0  0  0  0  0  0  0  0  0  0  0
   -0.4370   -2.6320   16.1160 C   0  0  0  0  0  0  0  0  0  0  0  0
   -1.7980   -2.8680   15.8950 C   0  0  0  0  0  0  0  0  0  0  0  0
   -2.4820   -2.1640   14.9040 C   0  0  0  0  0  0  0  0  0  0  0  0
   -3.8140   -2.3790   14.7050 O   0  0  0  0  0  0  0  0  0  0  0  0
   -4.3600   -2.7250   13.4190 C   0  0  0  0  0  0  0  0  0  0  0  0
   -4.4120    6.4474   14.2532 H   0  0  0  0  0  0  0  0  0  0  0  0
   -2.0982    5.6813   13.9772 H   0  0  0  0  0  0  0  0  0  0  0  0
   -5.5994    4.1956   10.7875 H   0  0  0  0  0  0  0  0  0  0  0  0
   -3.2636    3.4005   10.5189 H   0  0  0  0  0  0  0  0  0  0  0  0
   -0.6428    4.1497   12.9960 H   0  0  0  0  0  0  0  0  0  0  0  0
    1.4119    4.4795    9.3774 H   0  0  0  0  0  0  0  0  0  0  0  0
    3.7973    3.8814    9.5137 H   0  0  0  0  0  0  0  0  0  0  0  0
    0.6196    2.1449   12.8735 H   0  0  0  0  0  0  0  0  0  0  0  0
    4.5901    2.4150   11.3214 H   0  0  0  0  0  0  0  0  0  0  0  0
    5.1238    2.0404   13.4038 H   0  0  0  0  0  0  0  0  0  0  0  0
    6.4272   -0.9309   17.0738 H   0  0  0  0  0  0  0  0  0  0  0  0
    6.7451    0.9272   15.2242 H   0  0  0  0  0  0  0  0  0  0  0  0
    2.0343   -1.9366   16.2224 H   0  0  0  0  0  0  0  0  0  0  0  0
    0.0119   -0.2769   13.7370 H   0  0  0  0  0  0  0  0  0  0  0  0
   -3.0481    0.8276   11.6797 H   0  0  0  0  0  0  0  0  0  0  0  0
   -1.3132    0.3724   11.7767 H   0  0  0  0  0  0  0  0  0  0  0  0
   -2.0311    1.4467   13.0246 H   0  0  0  0  0  0  0  0  0  0  0  0
    0.0985   -3.1819   16.8814 H   0  0  0  0  0  0  0  0  0  0  0  0
   -2.3233   -3.6011   16.4964 H   0  0  0  0  0  0  0  0  0  0  0  0
   -5.4498   -2.8478   13.5044 H   0  0  0  0  0  0  0  0  0  0  0  0
   -3.9110   -3.6671   13.0715 H   0  0  0  0  0  0  0  0  0  0  0  0
   -4.1366   -1.9245   12.6984 H   0  0  0  0  0  0  0  0  0  0  0  0
    3.9670   -1.7508   16.9343 H   0  0  0  0  0  0  0  0  0  0  0  0
  1  2  1  0  0  0  0
  2  3  2  0  0  0  0
  2  4  1  0  0  0  0
  4  5  2  0  0  0  0
  4  7  1  0  0  0  0
  5  6  1  0  0  0  0
  5 39  1  0  0  0  0
  6  9  2  0  0  0  0
  6 40  1  0  0  0  0
  7  8  2  0  0  0  0
  7 41  1  0  0  0  0
  8  9  1  0  0  0  0
  8 42  1  0  0  0  0
  9 10  1  0  0  0  0
 10 11  1  0  0  0  0
 10 43  1  0  0  0  0
 11 12  2  0  0  0  0
 11 13  1  0  0  0  0
 13 14  2  0  0  0  0
 13 16  1  0  0  0  0
 14 15  1  0  0  0  0
 14 44  1  0  0  0  0
 15 18  2  0  0  0  0
 15 45  1  0  0  0  0
 16 17  2  0  0  0  0
 16 46  1  0  0  0  0
 17 18  1  0  0  0  0
 17 19  1  0  0  0  0
 18 47  1  0  0  0  0
 19 20  1  0  0  0  0
 19 21  2  0  0  0  0
 20 27  1  0  0  0  0
 20 48  1  0  0  0  0
 21 22  1  0  0  0  0
 22 23  2  0  0  0  0
 22 28  1  0  0  0  0
 23 24  1  0  0  0  0
 23 27  1  0  0  0  0
 24 25  1  0  0  0  0
 24 61  1  0  0  0  0
 25 26  2  0  0  0  0
 25 49  1  0  0  0  0
 26 27  1  0  0  0  0
 26 50  1  0  0  0  0
 28 29  1  0  0  0  0
 28 51  1  0  0  0  0
 29 30  2  0  0  0  0
 29 34  1  0  0  0  0
 30 31  1  0  0  0  0
 30 52  1  0  0  0  0
 31 32  1  0  0  0  0
 31 36  2  0  0  0  0
 32 33  1  0  0  0  0
 33 53  1  0  0  0  0
 33 54  1  0  0  0  0
 33 55  1  0  0  0  0
 34 35  2  0  0  0  0
 34 56  1  0  0  0  0
 35 36  1  0  0  0  0
 35 57  1  0  0  0  0
 36 37  1  0  0  0  0
 37 38  1  0  0  0  0
 38 58  1  0  0  0  0
 38 59  1  0  0  0  0
 38 60  1  0  0  0  0
M  CHG  1   1  -1
M  END
