4px6_ligand
 OpenBabel08222323353D

 53 57  0  0  1  0  0  0  0  0999 V2000
   -0.9810    4.7510   12.4490 C   0  0  0  0  0  0  0  0  0  0  0  0
   -1.0480    5.6860   11.2470 C   0  0  0  0  0  0  0  0  0  0  0  0
   -0.1230    5.2270   10.1380 C   0  0  0  0  0  0  0  0  0  0  0  0
    6.7290    0.7840   15.3760 C   0  0  0  0  0  0  0  0  0  0  0  0
    2.7170    0.9000   14.1860 C   0  0  0  0  0  0  0  0  0  0  0  0
    0.4720   -0.2240   14.2590 C   0  0  0  0  0  0  0  0  0  0  0  0
   -0.2720    0.6600   13.5030 C   0  0  0  0  0  0  0  0  0  0  0  0
   -1.6450    0.4370   13.2580 C   0  0  0  0  0  0  0  0  0  0  0  0
   -2.3080   -0.6570   13.7530 C   0  0  0  0  0  0  0  0  0  0  0  0
   -1.5830   -1.5720   14.5240 C   0  0  0  0  0  0  0  0  0  0  0  0
   -0.2050   -1.3600   14.7760 C   0  0  0  0  0  0  0  0  0  0  0  0
   -0.8290   -3.2840   15.7980 C   0  0  0  0  0  0  0  0  0  0  0  0
   -1.9570   -2.7890   15.1760 C   0  0  0  0  0  0  0  0  0  0  0  0
    3.8660   -1.2410   15.8370 O   0  0  0  0  0  0  0  0  0  0  0  0
    4.5500   -0.2890   15.4360 C   0  0  0  0  0  0  0  0  0  0  0  0
    5.9160   -0.2660   15.8030 N   0  0  0  0  0  0  0  0  0  0  0  0
    6.3340    1.7940   14.6390 N   0  0  0  0  0  0  0  0  0  0  0  0
    4.9760    1.8230   14.2420 C   0  0  0  0  0  0  0  0  0  0  0  0
    4.5500    2.8830   13.4650 C   0  0  0  0  0  0  0  0  0  0  0  0
    4.0780    0.8010   14.6270 C   0  0  0  0  0  0  0  0  0  0  0  0
    2.2670    1.9360   13.4170 N   0  0  0  0  0  0  0  0  0  0  0  0
    3.1850    2.9040   13.0710 C   0  0  0  0  0  0  0  0  0  0  0  0
    2.7430    3.9510   12.2980 N   0  0  0  0  0  0  0  0  0  0  0  0
    1.3540    4.0790   11.8310 C   0  0  2  0  0  0  0  0  0  0  0  0
    1.3020    5.0390   10.6450 C   0  0  0  0  0  0  0  0  0  0  0  0
    0.4380    4.6100   12.9830 C   0  0  1  0  0  0  0  0  0  0  0  0
    0.9560    5.9130   13.4250 N   0  3  0  0  0  0  0  0  0  0  0  0
    1.8460   -0.1000   14.5650 N   0  0  0  0  0  0  0  0  0  0  0  0
    0.2480   -2.4220   15.5620 N   0  0  0  0  0  0  0  0  0  0  0  0
   -1.3474    3.7585   12.1479 H   0  0  0  0  0  0  0  0  0  0  0  0
   -1.6227    5.1521   13.2473 H   0  0  0  0  0  0  0  0  0  0  0  0
   -0.7532    6.6974   11.5633 H   0  0  0  0  0  0  0  0  0  0  0  0
   -2.0800    5.7069   10.8667 H   0  0  0  0  0  0  0  0  0  0  0  0
   -0.1215    5.9817    9.3377 H   0  0  0  0  0  0  0  0  0  0  0  0
   -0.4900    4.2700    9.7388 H   0  0  0  0  0  0  0  0  0  0  0  0
    7.7749    0.7632   15.6788 H   0  0  0  0  0  0  0  0  0  0  0  0
    0.2062    1.5409   13.0902 H   0  0  0  0  0  0  0  0  0  0  0  0
   -2.1933    1.1547   12.6585 H   0  0  0  0  0  0  0  0  0  0  0  0
   -3.3626   -0.8081   13.5527 H   0  0  0  0  0  0  0  0  0  0  0  0
   -0.7839   -4.2023   16.3816 H   0  0  0  0  0  0  0  0  0  0  0  0
   -2.9478   -3.2409   15.1807 H   0  0  0  0  0  0  0  0  0  0  0  0
    6.2971   -0.9993   16.3661 H   0  0  0  0  0  0  0  0  0  0  0  0
    5.2327    3.6704   13.1666 H   0  0  0  0  0  0  0  0  0  0  0  0
    3.4179    4.6824   12.0325 H   0  0  0  0  0  0  0  0  0  0  0  0
    0.9905    3.0911   11.5118 H   0  0  0  0  0  0  0  0  0  0  0  0
    1.7014    6.0150   10.9579 H   0  0  0  0  0  0  0  0  0  0  0  0
    1.9203    4.6339    9.8304 H   0  0  0  0  0  0  0  0  0  0  0  0
    0.4461    3.9040   13.8265 H   0  0  0  0  0  0  0  0  0  0  0  0
    0.3765    6.2703   14.1684 H   0  0  0  0  0  0  0  0  0  0  0  0
    0.9458    6.5587   12.6511 H   0  0  0  0  0  0  0  0  0  0  0  0
    1.9008    5.8034   13.7587 H   0  0  0  0  0  0  0  0  0  0  0  0
    2.2477   -0.8511   15.1441 H   0  0  0  0  0  0  0  0  0  0  0  0
    1.2096   -2.5490   15.9085 H   0  0  0  0  0  0  0  0  0  0  0  0
  1 26  1  0  0  0  0
  1 30  1  0  0  0  0
  1 31  1  0  0  0  0
  2  1  1  0  0  0  0
  2 32  1  0  0  0  0
  2 33  1  0  0  0  0
  3  2  1  0  0  0  0
  3 34  1  0  0  0  0
  3 35  1  0  0  0  0
  4 16  1  0  0  0  0
  4 36  1  0  0  0  0
  5 20  2  0  0  0  0
  5 28  1  0  0  0  0
  6  7  2  0  0  0  0
  6 11  1  0  0  0  0
  7  8  1  0  0  0  0
  7 37  1  0  0  0  0
  8  9  2  0  0  0  0
  8 38  1  0  0  0  0
  9 39  1  0  0  0  0
 10  9  1  0  0  0  0
 10 13  1  0  0  0  0
 11 10  2  0  0  0  0
 11 29  1  0  0  0  0
 12 13  2  0  0  0  0
 12 40  1  0  0  0  0
 13 41  1  0  0  0  0
 15 14  2  0  0  0  0
 15 16  1  0  0  0  0
 16 42  1  0  0  0  0
 17  4  2  0  0  0  0
 18 17  1  0  0  0  0
 18 20  1  0  0  0  0
 19 18  2  0  0  0  0
 19 43  1  0  0  0  0
 20 15  1  0  0  0  0
 21  5  1  0  0  0  0
 22 19  1  0  0  0  0
 22 21  2  0  0  0  0
 23 22  1  0  0  0  0
 23 44  1  0  0  0  0
 24 23  1  0  0  0  0
 24 25  1  0  0  0  0
 24 26  1  0  0  0  0
 24 45  1  6  0  0  0
 25  3  1  0  0  0  0
 25 46  1  0  0  0  0
 25 47  1  0  0  0  0
 26 27  1  0  0  0  0
 26 48  1  1  0  0  0
 27 49  1  0  0  0  0
 27 50  1  0  0  0  0
 27 51  1  0  0  0  0
 28  6  1  0  0  0  0
 28 52  1  0  0  0  0
 29 12  1  0  0  0  0
 29 53  1  0  0  0  0
M  CHG  1  27   1
M  END
