4py1_ligand
 OpenBabel08222323353D

 42 45  0  0  0  0  0  0  0  0999 V2000
    9.3650  -11.3980   16.2790 N   0  0  0  0  0  0  0  0  0  0  0  0
    7.2510   -9.8080   17.8420 C   0  0  0  0  0  0  0  0  0  0  0  0
    6.2390   -8.9960   18.1820 N   0  0  0  0  0  0  0  0  0  0  0  0
    9.6320   -8.6280   12.8070 C   0  0  0  0  0  0  0  0  0  0  0  0
   10.3350  -10.8180   14.3980 C   0  0  0  0  0  0  0  0  0  0  0  0
   11.0960  -10.5910   13.2140 C   0  0  0  0  0  0  0  0  0  0  0  0
    5.5160   -5.2170   14.1660 C   0  0  0  0  0  0  0  0  0  0  0  0
   10.7480   -9.5050   12.4260 C   0  0  0  0  0  0  0  0  0  0  0  0
    9.2800   -9.8760   14.6670 N   0  0  0  0  0  0  0  0  0  0  0  0
    8.9430   -5.4880   16.1500 C   0  0  0  0  0  0  0  0  0  0  0  0
    3.3430   -5.8420   11.3760 C   0  0  0  0  0  0  0  0  0  0  0  0
    3.9810   -5.4660   12.5470 O   0  0  0  0  0  0  0  0  0  0  0  0
    5.3310   -5.6790   12.8590 C   0  0  0  0  0  0  0  0  0  0  0  0
    6.4330   -6.2490   12.1250 C   0  0  0  0  0  0  0  0  0  0  0  0
    6.7390   -5.2650   14.7660 C   0  0  0  0  0  0  0  0  0  0  0  0
    7.8550   -5.8200   14.0890 C   0  0  0  0  0  0  0  0  0  0  0  0
    9.0540   -5.7630   14.7540 O   0  0  0  0  0  0  0  0  0  0  0  0
    7.7320   -6.3570   12.7470 C   0  0  0  0  0  0  0  0  0  0  0  0
    9.0850   -7.1660   11.8550 S   0  0  0  0  0  0  0  0  0  0  0  0
   10.3410  -11.7330   15.4010 N   0  0  0  0  0  0  0  0  0  0  0  0
    8.9420   -8.8410   13.8970 N   0  0  0  0  0  0  0  0  0  0  0  0
    8.7080  -10.2540   15.8680 C   0  0  0  0  0  0  0  0  0  0  0  0
    7.6530   -9.5600   16.5040 C   0  0  0  0  0  0  0  0  0  0  0  0
    6.8290   -8.4980   16.0210 C   0  0  0  0  0  0  0  0  0  0  0  0
    5.9870   -8.2170   17.0710 N   0  0  0  0  0  0  0  0  0  0  0  0
    4.8980   -7.2490   17.0970 C   0  0  0  0  0  0  0  0  0  0  0  0
    7.7000  -10.5514   18.4990 H   0  0  0  0  0  0  0  0  0  0  0  0
   11.9206  -11.2469   12.9387 H   0  0  0  0  0  0  0  0  0  0  0  0
    4.6711   -4.8132   14.7121 H   0  0  0  0  0  0  0  0  0  0  0  0
   11.3077   -9.2994   11.5147 H   0  0  0  0  0  0  0  0  0  0  0  0
    9.9467   -5.4609   16.5993 H   0  0  0  0  0  0  0  0  0  0  0  0
    8.3464   -6.2761   16.6327 H   0  0  0  0  0  0  0  0  0  0  0  0
    8.4505   -4.5150   16.2941 H   0  0  0  0  0  0  0  0  0  0  0  0
    2.2861   -5.5404   11.4212 H   0  0  0  0  0  0  0  0  0  0  0  0
    3.4080   -6.9336   11.2572 H   0  0  0  0  0  0  0  0  0  0  0  0
    3.8282   -5.3504   10.5199 H   0  0  0  0  0  0  0  0  0  0  0  0
    6.2870   -6.5958   11.1084 H   0  0  0  0  0  0  0  0  0  0  0  0
    6.8599   -4.8752   15.7703 H   0  0  0  0  0  0  0  0  0  0  0  0
    6.8605   -8.0196   15.0432 H   0  0  0  0  0  0  0  0  0  0  0  0
    4.8497   -6.7254   16.1308 H   0  0  0  0  0  0  0  0  0  0  0  0
    5.0750   -6.5194   17.9009 H   0  0  0  0  0  0  0  0  0  0  0  0
    3.9472   -7.7715   17.2788 H   0  0  0  0  0  0  0  0  0  0  0  0
  1 20  1  0  0  0  0
  2  3  2  0  0  0  0
  2 27  1  0  0  0  0
  3 25  1  0  0  0  0
  4  8  1  0  0  0  0
  4 19  1  0  0  0  0
  5  6  1  0  0  0  0
  5 20  2  0  0  0  0
  6  8  2  0  0  0  0
  6 28  1  0  0  0  0
  7 29  1  0  0  0  0
  8 30  1  0  0  0  0
  9  5  1  0  0  0  0
  9 21  1  0  0  0  0
 10 31  1  0  0  0  0
 10 32  1  0  0  0  0
 10 33  1  0  0  0  0
 11 34  1  0  0  0  0
 11 35  1  0  0  0  0
 11 36  1  0  0  0  0
 12 11  1  0  0  0  0
 13  7  2  0  0  0  0
 13 12  1  0  0  0  0
 14 13  1  0  0  0  0
 14 37  1  0  0  0  0
 15  7  1  0  0  0  0
 15 38  1  0  0  0  0
 16 15  2  0  0  0  0
 16 17  1  0  0  0  0
 17 10  1  0  0  0  0
 18 14  2  0  0  0  0
 18 16  1  0  0  0  0
 19 18  1  0  0  0  0
 21  4  2  0  0  0  0
 22  1  2  0  0  0  0
 22  9  1  0  0  0  0
 22 23  1  0  0  0  0
 23  2  1  0  0  0  0
 23 24  2  0  0  0  0
 24 25  1  0  0  0  0
 24 39  1  0  0  0  0
 25 26  1  0  0  0  0
 26 40  1  0  0  0  0
 26 41  1  0  0  0  0
 26 42  1  0  0  0  0
M  END
