4pyv_ligand
 OpenBabel08222323353D

 59 61  0  0  1  0  0  0  0  0999 V2000
   40.5120  110.1250   10.3850 C   0  0  2  0  0  0  0  0  0  0  0  0
   40.8260  110.3470    8.8760 C   0  0  0  0  0  0  0  0  0  0  0  0
   42.2620  110.0980    8.5530 N   0  3  0  0  0  0  0  0  0  0  0  0
   42.9020  108.8560    9.0710 C   0  0  0  0  0  0  0  0  0  0  0  0
   42.7580  108.9370   10.6060 C   0  0  1  0  0  0  0  0  0  0  0  0
   41.2210  108.8390   10.9020 C   0  0  0  0  0  0  0  0  0  0  0  0
   43.5270  107.8990   11.4280 C   0  0  0  0  0  0  0  0  0  0  0  0
   44.5510  108.1630   12.3180 N   0  0  0  0  0  0  0  0  0  0  0  0
   43.1100  106.7580   11.3100 O   0  0  0  0  0  0  0  0  0  0  0  0
   39.0470  110.1600   10.6160 N   0  0  0  0  0  0  0  0  0  0  0  0
   45.0670  109.5150   12.5940 C   0  0  0  0  0  0  0  0  0  0  0  0
   44.9710  107.0670   13.2010 C   0  0  0  0  0  0  0  0  0  0  0  0
   46.6030  109.7210   12.6260 C   0  0  0  0  0  0  0  0  0  0  0  0
   45.7860  110.2870   11.4620 C   0  0  0  0  0  0  0  0  0  0  0  0
   46.1990  106.1900   12.9370 C   0  0  0  0  0  0  0  0  0  0  0  0
   46.7330  105.9510   11.6620 C   0  0  0  0  0  0  0  0  0  0  0  0
   47.8200  105.0590   11.5330 C   0  0  0  0  0  0  0  0  0  0  0  0
   48.3750  104.3980   12.6450 C   0  0  0  0  0  0  0  0  0  0  0  0
   47.8170  104.6070   13.9140 C   0  0  0  0  0  0  0  0  0  0  0  0
   46.7310  105.4900   14.0480 C   0  0  0  0  0  0  0  0  0  0  0  0
   46.0480  105.7210   15.6460 Cl  0  0  0  0  0  0  0  0  0  0  0  0
   48.4460  103.7580   15.3240 Cl  0  0  0  0  0  0  0  0  0  0  0  0
   38.5540  111.2650   11.2530 C   0  0  0  0  0  0  0  0  0  0  0  0
   39.2720  112.1720   11.6640 O   0  0  0  0  0  0  0  0  0  0  0  0
   37.2100  111.2660   11.3870 O   0  0  0  0  0  0  0  0  0  0  0  0
   36.4720  112.3970   11.9850 C   0  0  0  0  0  0  0  0  0  0  0  0
   36.9550  112.9060   13.3950 C   0  0  0  0  0  0  0  0  0  0  0  0
   36.5590  113.5710   10.9460 C   0  0  0  0  0  0  0  0  0  0  0  0
   34.9640  112.0380   12.1250 C   0  0  0  0  0  0  0  0  0  0  0  0
   40.9416  110.9702   10.9427 H   0  0  0  0  0  0  0  0  0  0  0  0
   40.5794  111.3861    8.6126 H   0  0  0  0  0  0  0  0  0  0  0  0
   40.2056  109.6607    8.2810 H   0  0  0  0  0  0  0  0  0  0  0  0
   42.7882  110.8775    8.9158 H   0  0  0  0  0  0  0  0  0  0  0  0
   42.3418  110.0772    7.5484 H   0  0  0  0  0  0  0  0  0  0  0  0
   43.9634  108.8205    8.7844 H   0  0  0  0  0  0  0  0  0  0  0  0
   42.3871  107.9654    8.6817 H   0  0  0  0  0  0  0  0  0  0  0  0
   43.1206  109.9259   10.9231 H   0  0  0  0  0  0  0  0  0  0  0  0
   40.8041  107.9591   10.3903 H   0  0  0  0  0  0  0  0  0  0  0  0
   41.0615  108.7425   11.9861 H   0  0  0  0  0  0  0  0  0  0  0  0
   38.4505  109.4136   10.3209 H   0  0  0  0  0  0  0  0  0  0  0  0
   44.4100  110.0391   13.3037 H   0  0  0  0  0  0  0  0  0  0  0  0
   44.1152  106.3778   13.2522 H   0  0  0  0  0  0  0  0  0  0  0  0
   45.1343  107.5228   14.1887 H   0  0  0  0  0  0  0  0  0  0  0  0
   47.2753  108.8662   12.4606 H   0  0  0  0  0  0  0  0  0  0  0  0
   47.0505  110.4018   13.3650 H   0  0  0  0  0  0  0  0  0  0  0  0
   45.6482  111.3741   11.3659 H   0  0  0  0  0  0  0  0  0  0  0  0
   45.8730  109.8385   10.4614 H   0  0  0  0  0  0  0  0  0  0  0  0
   46.3179  106.4431   10.7899 H   0  0  0  0  0  0  0  0  0  0  0  0
   48.2390  104.8781   10.5497 H   0  0  0  0  0  0  0  0  0  0  0  0
   49.2238  103.7352   12.5216 H   0  0  0  0  0  0  0  0  0  0  0  0
   36.3216  113.7451   13.7186 H   0  0  0  0  0  0  0  0  0  0  0  0
   38.0004  113.2412   13.3255 H   0  0  0  0  0  0  0  0  0  0  0  0
   36.8803  112.0872   14.1258 H   0  0  0  0  0  0  0  0  0  0  0  0
   36.0234  114.4481   11.3382 H   0  0  0  0  0  0  0  0  0  0  0  0
   36.1006  113.2556    9.9971 H   0  0  0  0  0  0  0  0  0  0  0  0
   37.6138  113.8318   10.7749 H   0  0  0  0  0  0  0  0  0  0  0  0
   34.4249  112.8868   12.5710 H   0  0  0  0  0  0  0  0  0  0  0  0
   34.8558  111.1546   12.7714 H   0  0  0  0  0  0  0  0  0  0  0  0
   34.5454  111.8190   11.1316 H   0  0  0  0  0  0  0  0  0  0  0  0
  1  2  1  0  0  0  0
  1  6  1  0  0  0  0
  1 10  1  0  0  0  0
  1 30  1  1  0  0  0
  2  3  1  0  0  0  0
  2 31  1  0  0  0  0
  2 32  1  0  0  0  0
  3  4  1  0  0  0  0
  3 33  1  0  0  0  0
  3 34  1  0  0  0  0
  4  5  1  0  0  0  0
  4 35  1  0  0  0  0
  4 36  1  0  0  0  0
  5  6  1  0  0  0  0
  5  7  1  0  0  0  0
  5 37  1  1  0  0  0
  6 38  1  0  0  0  0
  6 39  1  0  0  0  0
  7  8  1  0  0  0  0
  7  9  2  0  0  0  0
  8 11  1  0  0  0  0
  8 12  1  0  0  0  0
 10 23  1  0  0  0  0
 10 40  1  0  0  0  0
 11 13  1  0  0  0  0
 11 14  1  0  0  0  0
 11 41  1  0  0  0  0
 12 15  1  0  0  0  0
 12 42  1  0  0  0  0
 12 43  1  0  0  0  0
 13 14  1  0  0  0  0
 13 44  1  0  0  0  0
 13 45  1  0  0  0  0
 14 46  1  0  0  0  0
 14 47  1  0  0  0  0
 15 16  2  0  0  0  0
 15 20  1  0  0  0  0
 16 17  1  0  0  0  0
 16 48  1  0  0  0  0
 17 18  2  0  0  0  0
 17 49  1  0  0  0  0
 18 19  1  0  0  0  0
 18 50  1  0  0  0  0
 19 20  2  0  0  0  0
 19 22  1  0  0  0  0
 20 21  1  0  0  0  0
 23 24  2  0  0  0  0
 23 25  1  0  0  0  0
 25 26  1  0  0  0  0
 26 27  1  0  0  0  0
 26 28  1  0  0  0  0
 26 29  1  0  0  0  0
 27 51  1  0  0  0  0
 27 52  1  0  0  0  0
 27 53  1  0  0  0  0
 28 54  1  0  0  0  0
 28 55  1  0  0  0  0
 28 56  1  0  0  0  0
 29 57  1  0  0  0  0
 29 58  1  0  0  0  0
 29 59  1  0  0  0  0
M  CHG  1   3   1
M  END
