4pzh_ligand
 OpenBabel08222323353D

 27 27  0  0  0  0  0  0  0  0999 V2000
   19.1710    8.3080   14.6180 O   0  0  0  0  0  0  0  0  0  0  0  0
   18.2220    7.6820   13.6640 S   0  0  0  0  0  0  0  0  0  0  0  0
   17.2120    8.5430   12.9620 O   0  0  0  0  0  0  0  0  0  0  0  0
   19.5340    7.4330   12.3790 C   0  0  0  0  0  0  0  0  0  0  0  0
   20.6610    6.3360   12.4880 C   0  0  0  0  0  0  0  0  0  0  0  0
   22.0570    6.4260   12.0000 O   0  0  0  0  0  0  0  0  0  0  0  0
   17.3240    6.3320   14.4300 C   0  0  0  0  0  0  0  0  0  0  0  0
   15.9600    6.2290   14.5110 C   0  0  0  0  0  0  0  0  0  0  0  0
   15.1880    7.1460   13.9530 F   0  0  0  0  0  0  0  0  0  0  0  0
   15.3460    5.1810   15.2190 C   0  0  0  0  0  0  0  0  0  0  0  0
   14.0090    5.1880   15.1860 F   0  0  0  0  0  0  0  0  0  0  0  0
   15.9870    4.1460   15.7820 C   0  0  0  0  0  0  0  0  0  0  0  0
   15.2600    2.7540   16.7290 S   0  0  0  0  0  0  0  0  0  0  0  0
   13.8670    2.8970   16.5450 O   0  0  0  0  0  0  0  0  0  0  0  0
   15.7720    1.4250   16.0320 N   0  0  0  0  0  0  0  0  0  0  0  0
   15.8170    2.9540   18.0110 O   0  0  0  0  0  0  0  0  0  0  0  0
   17.4020    4.2730   15.6810 C   0  0  0  0  0  0  0  0  0  0  0  0
   18.1480    3.3140   16.2240 F   0  0  0  0  0  0  0  0  0  0  0  0
   18.0170    5.3350   15.0690 C   0  0  0  0  0  0  0  0  0  0  0  0
   19.3820    5.3710   15.1010 F   0  0  0  0  0  0  0  0  0  0  0  0
   20.0589    8.3960   12.2946 H   0  0  0  0  0  0  0  0  0  0  0  0
   18.9999    7.2231   11.4406 H   0  0  0  0  0  0  0  0  0  0  0  0
   20.2432    5.4527   11.9828 H   0  0  0  0  0  0  0  0  0  0  0  0
   20.7525    6.1332   13.5653 H   0  0  0  0  0  0  0  0  0  0  0  0
   22.0544    6.5649   11.0602 H   0  0  0  0  0  0  0  0  0  0  0  0
   15.4937    0.5336   16.3898 H   0  0  0  0  0  0  0  0  0  0  0  0
   16.3732    1.4782   15.2346 H   0  0  0  0  0  0  0  0  0  0  0  0
  1  2  2  0  0  0  0
  2  3  2  0  0  0  0
  2  4  1  0  0  0  0
  2  7  1  0  0  0  0
  4  5  1  0  0  0  0
  4 21  1  0  0  0  0
  4 22  1  0  0  0  0
  5  6  1  0  0  0  0
  5 23  1  0  0  0  0
  5 24  1  0  0  0  0
  6 25  1  0  0  0  0
  7  8  2  0  0  0  0
  7 19  1  0  0  0  0
  8  9  1  0  0  0  0
  8 10  1  0  0  0  0
 10 11  1  0  0  0  0
 10 12  2  0  0  0  0
 12 13  1  0  0  0  0
 12 17  1  0  0  0  0
 13 14  2  0  0  0  0
 13 15  1  0  0  0  0
 13 16  2  0  0  0  0
 15 26  1  0  0  0  0
 15 27  1  0  0  0  0
 17 18  1  0  0  0  0
 17 19  2  0  0  0  0
 19 20  1  0  0  0  0
M  END
