4pzw_ligand
 OpenBabel08222323353D

 45 49  0  0  1  0  0  0  0  0999 V2000
   21.0370   11.5910    7.1000 C   0  0  0  0  0  0  0  0  0  0  0  0
   21.6840   10.6070    7.9060 O   0  0  0  0  0  0  0  0  0  0  0  0
   23.1070   10.6170    7.9140 C   0  0  0  0  0  0  0  0  0  0  0  0
   23.5970   11.9770    8.4570 C   0  0  2  0  0  0  0  0  0  0  0  0
   22.9150   13.1750    7.7430 C   0  0  1  0  0  0  0  0  0  0  0  0
   21.3770   13.0070    7.6140 C   0  0  0  0  0  0  0  0  0  0  0  0
   24.9970   12.0430    8.2330 O   0  0  0  0  0  0  0  0  0  0  0  0
   25.6180   13.2160    8.5680 C   0  0  0  0  0  0  0  0  0  0  0  0
   24.8960   14.4400    8.6430 C   0  0  0  0  0  0  0  0  0  0  0  0
   23.3930   14.5310    8.3170 C   0  0  2  0  0  0  0  0  0  0  0  0
   27.0080   13.1670    8.8530 C   0  0  0  0  0  0  0  0  0  0  0  0
   27.6960   14.3500    9.2170 C   0  0  0  0  0  0  0  0  0  0  0  0
   26.9820   15.5760    9.2890 C   0  0  0  0  0  0  0  0  0  0  0  0
   25.5890   15.6170    9.0070 C   0  0  0  0  0  0  0  0  0  0  0  0
   22.6100   14.8450    9.4980 N   0  0  0  0  0  0  0  0  0  0  0  0
   22.0510   16.0510    9.3650 C   0  0  1  0  0  3  0  0  0  0  0  0
   22.2210   16.6090    8.1390 O   0  0  0  0  0  0  0  0  0  0  0  0
   23.1000   15.7490    7.4020 C   0  0  0  0  0  0  0  0  0  0  0  0
   27.6240   16.7770    9.6540 C   0  0  0  0  0  0  0  0  0  0  0  0
   26.9870   17.6560   10.5690 C   0  0  0  0  0  0  0  0  0  0  0  0
   27.6390   18.8670   10.9060 C   0  0  0  0  0  0  0  0  0  0  0  0
   28.9070   19.1440   10.3340 C   0  0  0  0  0  0  0  0  0  0  0  0
   29.5050   18.2990    9.4650 N   0  0  0  0  0  0  0  0  0  0  0  0
   28.8900   17.1440    9.1250 C   0  0  0  0  0  0  0  0  0  0  0  0
   21.1760   16.6120   10.2070 N   0  0  0  0  0  0  0  0  0  0  0  0
   26.9070   19.9690   11.9970 Cl  0  0  0  0  0  0  0  0  0  0  0  0
   19.9484   11.4395    7.1451 H   0  0  0  0  0  0  0  0  0  0  0  0
   21.3784   11.4903    6.0592 H   0  0  0  0  0  0  0  0  0  0  0  0
   23.4826   10.4716    6.8904 H   0  0  0  0  0  0  0  0  0  0  0  0
   23.4779    9.8070    8.5592 H   0  0  0  0  0  0  0  0  0  0  0  0
   23.3860   12.0355    9.5350 H   0  0  0  0  0  0  0  0  0  0  0  0
   23.2885   13.1545    6.7086 H   0  0  0  0  0  0  0  0  0  0  0  0
   20.9111   13.1577    8.5990 H   0  0  0  0  0  0  0  0  0  0  0  0
   20.9880   13.7537    6.9062 H   0  0  0  0  0  0  0  0  0  0  0  0
   27.5418   12.2255    8.7921 H   0  0  0  0  0  0  0  0  0  0  0  0
   28.7567   14.3203    9.4385 H   0  0  0  0  0  0  0  0  0  0  0  0
   25.0545   16.5578    9.0716 H   0  0  0  0  0  0  0  0  0  0  0  0
   22.5015   14.2296   10.3168 H   0  0  0  0  0  0  0  0  0  0  0  0
   22.6157   15.4177    6.4716 H   0  0  0  0  0  0  0  0  0  0  0  0
   24.0344   16.2770    7.1611 H   0  0  0  0  0  0  0  0  0  0  0  0
   26.0241   17.4060   10.9996 H   0  0  0  0  0  0  0  0  0  0  0  0
   29.4133   20.0640   10.6027 H   0  0  0  0  0  0  0  0  0  0  0  0
   29.3793   16.4759    8.4255 H   0  0  0  0  0  0  0  0  0  0  0  0
   20.8030   17.5519   10.0113 H   0  0  0  0  0  0  0  0  0  0  0  0
   20.8753   16.1041   11.0511 H   0  0  0  0  0  0  0  0  0  0  0  0
  1  2  1  0  0  0  0
  1  6  1  0  0  0  0
  1 27  1  0  0  0  0
  1 28  1  0  0  0  0
  2  3  1  0  0  0  0
  3  4  1  0  0  0  0
  3 29  1  0  0  0  0
  3 30  1  0  0  0  0
  4  5  1  0  0  0  0
  4  7  1  0  0  0  0
  4 31  1  1  0  0  0
  5  6  1  0  0  0  0
  5 10  1  0  0  0  0
  5 32  1  6  0  0  0
  6 33  1  0  0  0  0
  6 34  1  0  0  0  0
  7  8  1  0  0  0  0
  8  9  2  0  0  0  0
  8 11  1  0  0  0  0
  9 14  1  0  0  0  0
 10  9  1  1  0  0  0
 10 15  1  0  0  0  0
 10 18  1  0  0  0  0
 11 12  2  0  0  0  0
 11 35  1  0  0  0  0
 12 13  1  0  0  0  0
 12 36  1  0  0  0  0
 13 14  2  0  0  0  0
 13 19  1  0  0  0  0
 14 37  1  0  0  0  0
 15 16  1  0  0  0  0
 15 38  1  0  0  0  0
 16 17  1  0  0  0  0
 16 25  1  6  0  0  0
 17 18  1  0  0  0  0
 18 39  1  0  0  0  0
 18 40  1  0  0  0  0
 19 20  2  0  0  0  0
 19 24  1  0  0  0  0
 20 21  1  0  0  0  0
 20 41  1  0  0  0  0
 21 22  2  0  0  0  0
 21 26  1  0  0  0  0
 22 23  1  0  0  0  0
 22 42  1  0  0  0  0
 23 24  2  0  0  0  0
 24 43  1  0  0  0  0
 25 44  1  0  0  0  0
 25 45  1  0  0  0  0
M  END
