4q0a_ligand
 OpenBabel08222323353D

 66 69  0  0  1  0  0  0  0  0999 V2000
   -0.0040   31.0880   35.2040 C   0  0  0  0  0  0  0  0  0  0  0  0
    0.4610   31.5340   36.6640 C   0  0  1  0  0  0  0  0  0  0  0  0
   -0.9430   33.8360   36.5830 C   0  0  0  0  0  0  0  0  0  0  0  0
   -0.9320   35.3670   36.7240 C   0  0  0  0  0  0  0  0  0  0  0  0
   -0.3410   35.8990   38.1030 C   0  0  1  0  0  0  0  0  0  0  0  0
    1.0890   35.2260   38.3400 C   0  0  1  0  0  0  0  0  0  0  0  0
    1.6100   35.8220   39.6640 C   0  0  0  0  0  0  0  0  0  0  0  0
    1.0270   37.2780   39.5510 C   0  0  0  0  0  0  0  0  0  0  0  0
    0.2020   37.3540   38.2230 C   0  0  2  0  0  0  0  0  0  0  0  0
   -1.4660   35.5600   39.2120 C   0  0  0  0  0  0  0  0  0  0  0  0
   -0.5470   30.9290   37.6980 C   0  0  0  0  0  0  0  0  0  0  0  0
    3.3510   31.7000   33.3910 O   0  0  0  0  0  0  0  0  0  0  0  0
    0.9620   31.6560   34.1030 C   0  0  0  0  0  0  0  0  0  0  0  0
   -0.9000   38.5600   38.3400 C   0  0  2  0  0  0  0  0  0  0  0  0
   -1.8280   38.7040   37.1190 C   0  0  0  0  0  0  0  0  0  0  0  0
   -0.2200   39.9590   38.4140 C   0  0  0  0  0  0  0  0  0  0  0  0
   -0.8690   41.0970   39.1760 C   0  0  0  0  0  0  0  0  0  0  0  0
   -0.0390   42.4140   39.1600 C   0  0  0  0  0  0  0  0  0  0  0  0
    2.4610   31.1690   34.3750 C   0  0  2  0  0  0  0  0  0  0  0  0
    2.9540   31.5880   35.8110 C   0  0  0  0  0  0  0  0  0  0  0  0
   -0.5180   43.3750   39.7890 O   0  5  0  0  0  0  0  0  0  0  0  0
    1.0670   42.5190   38.5600 O   0  0  0  0  0  0  0  0  0  0  0  0
    1.9600   30.9940   36.9250 C   0  0  1  0  0  0  0  0  0  0  0  0
    2.4360   31.4270   38.4130 C   0  0  0  0  0  0  0  0  0  0  0  0
    2.4610   33.0010   38.5170 C   0  0  0  0  0  0  0  0  0  0  0  0
    1.0370   33.6250   38.2760 C   0  0  2  0  0  0  0  0  0  0  0  0
    0.5050   33.1800   36.8150 C   0  0  1  0  0  0  0  0  0  0  0  0
   -1.0203   31.4664   35.0197 H   0  0  0  0  0  0  0  0  0  0  0  0
   -0.0059   29.9895   35.1478 H   0  0  0  0  0  0  0  0  0  0  0  0
   -1.2875   33.5786   35.5706 H   0  0  0  0  0  0  0  0  0  0  0  0
   -1.6405   33.4196   37.3246 H   0  0  0  0  0  0  0  0  0  0  0  0
   -1.9670   35.7279   36.6319 H   0  0  0  0  0  0  0  0  0  0  0  0
   -0.3245   35.7829   35.9067 H   0  0  0  0  0  0  0  0  0  0  0  0
    1.7646   35.5495   37.5345 H   0  0  0  0  0  0  0  0  0  0  0  0
    2.7091   35.8239   39.7071 H   0  0  0  0  0  0  0  0  0  0  0  0
    1.2097   35.2880   40.5384 H   0  0  0  0  0  0  0  0  0  0  0  0
    1.8477   38.0100   39.5254 H   0  0  0  0  0  0  0  0  0  0  0  0
    0.3743   37.4888   40.4109 H   0  0  0  0  0  0  0  0  0  0  0  0
    0.8538   37.5723   37.3642 H   0  0  0  0  0  0  0  0  0  0  0  0
   -1.8112   34.5240   39.0793 H   0  0  0  0  0  0  0  0  0  0  0  0
   -2.3163   36.2477   39.0938 H   0  0  0  0  0  0  0  0  0  0  0  0
   -1.0365   35.6774   40.2178 H   0  0  0  0  0  0  0  0  0  0  0  0
   -0.2487   31.2221   38.7154 H   0  0  0  0  0  0  0  0  0  0  0  0
   -0.5421   29.8321   37.6162 H   0  0  0  0  0  0  0  0  0  0  0  0
   -1.5583   31.3078   37.4890 H   0  0  0  0  0  0  0  0  0  0  0  0
    3.0826   31.4028   32.5295 H   0  0  0  0  0  0  0  0  0  0  0  0
    0.9284   32.7553   34.1228 H   0  0  0  0  0  0  0  0  0  0  0  0
    0.6375   31.2970   33.1152 H   0  0  0  0  0  0  0  0  0  0  0  0
   -1.5019   38.3808   39.2431 H   0  0  0  0  0  0  0  0  0  0  0  0
   -2.5297   39.5341   37.2877 H   0  0  0  0  0  0  0  0  0  0  0  0
   -2.3921   37.7707   36.9750 H   0  0  0  0  0  0  0  0  0  0  0  0
   -1.2250   38.9101   36.2224 H   0  0  0  0  0  0  0  0  0  0  0  0
   -0.0991   40.3045   37.3767 H   0  0  0  0  0  0  0  0  0  0  0  0
    0.7705   39.8031   38.8663 H   0  0  0  0  0  0  0  0  0  0  0  0
   -1.0024   40.7833   40.2218 H   0  0  0  0  0  0  0  0  0  0  0  0
   -1.8519   41.3004   38.7260 H   0  0  0  0  0  0  0  0  0  0  0  0
    2.4814   30.0712   34.3086 H   0  0  0  0  0  0  0  0  0  0  0  0
    2.9709   32.6854   35.8851 H   0  0  0  0  0  0  0  0  0  0  0  0
    3.9671   31.1935   35.9785 H   0  0  0  0  0  0  0  0  0  0  0  0
    1.9645   29.8962   36.8551 H   0  0  0  0  0  0  0  0  0  0  0  0
    3.4436   31.0303   38.6061 H   0  0  0  0  0  0  0  0  0  0  0  0
    1.7335   31.0211   39.1558 H   0  0  0  0  0  0  0  0  0  0  0  0
    3.1557   33.3968   37.7615 H   0  0  0  0  0  0  0  0  0  0  0  0
    2.8094   33.2861   39.5206 H   0  0  0  0  0  0  0  0  0  0  0  0
    0.3465   33.2549   39.0481 H   0  0  0  0  0  0  0  0  0  0  0  0
    1.1950   33.5733   36.0540 H   0  0  0  0  0  0  0  0  0  0  0  0
  1  2  1  0  0  0  0
  1 28  1  0  0  0  0
  1 29  1  0  0  0  0
  2 11  1  1  0  0  0
  2 23  1  0  0  0  0
  2 27  1  0  0  0  0
  3  4  1  0  0  0  0
  3 30  1  0  0  0  0
  3 31  1  0  0  0  0
  4  5  1  0  0  0  0
  4 32  1  0  0  0  0
  4 33  1  0  0  0  0
  5  6  1  0  0  0  0
  5  9  1  0  0  0  0
  5 10  1  1  0  0  0
  6  7  1  0  0  0  0
  6 26  1  0  0  0  0
  6 34  1  6  0  0  0
  7 35  1  0  0  0  0
  7 36  1  0  0  0  0
  8  7  1  0  0  0  0
  8 37  1  0  0  0  0
  8 38  1  0  0  0  0
  9  8  1  0  0  0  0
  9 14  1  0  0  0  0
  9 39  1  6  0  0  0
 10 40  1  0  0  0  0
 10 41  1  0  0  0  0
 10 42  1  0  0  0  0
 11 43  1  0  0  0  0
 11 44  1  0  0  0  0
 11 45  1  0  0  0  0
 12 46  1  0  0  0  0
 13  1  1  0  0  0  0
 13 19  1  0  0  0  0
 13 47  1  0  0  0  0
 13 48  1  0  0  0  0
 14 15  1  0  0  0  0
 14 16  1  0  0  0  0
 14 49  1  1  0  0  0
 15 50  1  0  0  0  0
 15 51  1  0  0  0  0
 15 52  1  0  0  0  0
 16 17  1  0  0  0  0
 16 53  1  0  0  0  0
 16 54  1  0  0  0  0
 17 18  1  0  0  0  0
 17 55  1  0  0  0  0
 17 56  1  0  0  0  0
 18 21  1  0  0  0  0
 18 22  2  0  0  0  0
 19 12  1  0  0  0  0
 19 20  1  0  0  0  0
 19 57  1  6  0  0  0
 20 23  1  0  0  0  0
 20 58  1  0  0  0  0
 20 59  1  0  0  0  0
 23 24  1  0  0  0  0
 23 60  1  6  0  0  0
 24 25  1  0  0  0  0
 24 61  1  0  0  0  0
 24 62  1  0  0  0  0
 25 26  1  0  0  0  0
 25 63  1  0  0  0  0
 25 64  1  0  0  0  0
 26 27  1  0  0  0  0
 26 65  1  1  0  0  0
 27  3  1  0  0  0  0
 27 66  1  6  0  0  0
M  CHG  1  21  -1
M  END
