4q1c_ligand
 OpenBabel08222323353D

 59 61  0  0  0  0  0  0  0  0999 V2000
  -35.1420    6.9480   -0.3300 O   0  0  0  0  0  0  0  0  0  0  0  0
  -36.0670    7.6760   -1.1700 C   0  0  0  0  0  0  0  0  0  0  0  0
  -35.3310    8.8470   -1.8170 C   0  0  0  0  0  0  0  0  0  0  0  0
  -36.2750    9.9110   -2.0350 O   0  0  0  0  0  0  0  0  0  0  0  0
  -35.8510   10.8870   -2.9070 C   0  0  0  0  0  0  0  0  0  0  0  0
  -34.5110   11.2370   -3.0660 C   0  0  0  0  0  0  0  0  0  0  0  0
  -36.8360   11.5670   -3.6070 C   0  0  0  0  0  0  0  0  0  0  0  0
  -38.1180   11.1570   -3.3750 O   0  0  0  0  0  0  0  0  0  0  0  0
  -39.1690   11.9960   -3.7940 C   0  0  0  0  0  0  0  0  0  0  0  0
  -39.9930   11.0420   -4.6540 C   0  0  0  0  0  0  0  0  0  0  0  0
  -40.5260    9.9900   -3.8330 O   0  0  0  0  0  0  0  0  0  0  0  0
  -36.4910   12.5840   -4.4820 C   0  0  0  0  0  0  0  0  0  0  0  0
  -35.1460   12.9050   -4.6320 C   0  0  0  0  0  0  0  0  0  0  0  0
  -34.1480   12.2350   -3.9440 C   0  0  0  0  0  0  0  0  0  0  0  0
  -32.8530   12.5860   -4.0910 C   0  0  0  0  0  0  0  0  0  0  0  0
  -31.9130   12.1880   -3.2640 N   0  0  0  0  0  0  0  0  0  0  0  0
  -32.1930   13.5460   -5.2210 S   0  0  0  0  0  0  0  0  0  0  0  0
  -30.7050   13.4600   -4.6340 C   0  0  0  0  0  0  0  0  0  0  0  0
  -29.5500   14.1970   -5.2350 C   0  0  0  0  0  0  0  0  0  0  0  0
  -29.4630   15.3620   -4.2640 C   0  0  0  0  0  0  0  0  0  0  0  0
  -28.6160   16.4850   -4.8410 C   0  0  0  0  0  0  0  0  0  0  0  0
  -30.7000   12.6560   -3.5600 C   0  0  0  0  0  0  0  0  0  0  0  0
  -29.5100   12.2890   -2.7060 C   0  0  0  0  0  0  0  0  0  0  0  0
  -28.6580   10.7410   -3.2760 S   0  0  0  0  0  0  0  0  0  0  0  0
  -27.0050   11.1520   -3.6360 C   0  0  0  0  0  0  0  0  0  0  0  0
  -26.1360   10.1690   -3.9360 N   0  0  0  0  0  0  0  0  0  0  0  0
  -26.6260   12.4190   -3.6480 N   0  0  0  0  0  0  0  0  0  0  0  0
  -25.3450   12.7410   -3.9460 C   0  0  0  0  0  0  0  0  0  0  0  0
  -24.9830   14.0150   -3.9660 N   0  0  0  0  0  0  0  0  0  0  0  0
  -24.4210   11.7510   -4.2280 C   0  0  0  0  0  0  0  0  0  0  0  0
  -24.8580   10.4350   -4.2080 C   0  0  0  0  0  0  0  0  0  0  0  0
  -24.0220    9.4230   -4.4470 N   0  0  0  0  0  0  0  0  0  0  0  0
  -35.5929    6.2172    0.0764 H   0  0  0  0  0  0  0  0  0  0  0  0
  -36.9000    8.0552   -0.5598 H   0  0  0  0  0  0  0  0  0  0  0  0
  -36.4592    7.0091   -1.9519 H   0  0  0  0  0  0  0  0  0  0  0  0
  -34.9001    8.5298   -2.7781 H   0  0  0  0  0  0  0  0  0  0  0  0
  -34.5270    9.1941   -1.1514 H   0  0  0  0  0  0  0  0  0  0  0  0
  -33.7487   10.7200   -2.4945 H   0  0  0  0  0  0  0  0  0  0  0  0
  -38.7944   12.8463   -4.3827 H   0  0  0  0  0  0  0  0  0  0  0  0
  -39.7504   12.3701   -2.9384 H   0  0  0  0  0  0  0  0  0  0  0  0
  -39.3521   10.6074   -5.4353 H   0  0  0  0  0  0  0  0  0  0  0  0
  -40.8202   11.5944   -5.1236 H   0  0  0  0  0  0  0  0  0  0  0  0
  -39.8113    9.5130   -3.4280 H   0  0  0  0  0  0  0  0  0  0  0  0
  -37.2530   13.1182   -5.0379 H   0  0  0  0  0  0  0  0  0  0  0  0
  -34.8700   13.7053   -5.3091 H   0  0  0  0  0  0  0  0  0  0  0  0
  -29.7660   14.5325   -6.2601 H   0  0  0  0  0  0  0  0  0  0  0  0
  -28.6314   13.5919   -5.2331 H   0  0  0  0  0  0  0  0  0  0  0  0
  -29.0092   15.0147   -3.3241 H   0  0  0  0  0  0  0  0  0  0  0  0
  -30.4761   15.7410   -4.0640 H   0  0  0  0  0  0  0  0  0  0  0  0
  -28.5682   17.3152   -4.1210 H   0  0  0  0  0  0  0  0  0  0  0  0
  -29.0670   16.8393   -5.7797 H   0  0  0  0  0  0  0  0  0  0  0  0
  -27.6001   16.1131   -5.0398 H   0  0  0  0  0  0  0  0  0  0  0  0
  -29.8535   12.1395   -1.6718 H   0  0  0  0  0  0  0  0  0  0  0  0
  -28.7877   13.1181   -2.7363 H   0  0  0  0  0  0  0  0  0  0  0  0
  -24.0111   14.2707   -4.1915 H   0  0  0  0  0  0  0  0  0  0  0  0
  -25.6734   14.7499   -3.7561 H   0  0  0  0  0  0  0  0  0  0  0  0
  -23.3901   11.9956   -4.4569 H   0  0  0  0  0  0  0  0  0  0  0  0
  -23.0318    9.6120   -4.6586 H   0  0  0  0  0  0  0  0  0  0  0  0
  -24.3668    8.4528   -4.4199 H   0  0  0  0  0  0  0  0  0  0  0  0
  1  2  1  0  0  0  0
  1 33  1  0  0  0  0
  2  3  1  0  0  0  0
  2 34  1  0  0  0  0
  2 35  1  0  0  0  0
  3  4  1  0  0  0  0
  3 36  1  0  0  0  0
  3 37  1  0  0  0  0
  4  5  1  0  0  0  0
  5  6  2  0  0  0  0
  5  7  1  0  0  0  0
  6 14  1  0  0  0  0
  6 38  1  0  0  0  0
  7  8  1  0  0  0  0
  7 12  2  0  0  0  0
  8  9  1  0  0  0  0
  9 10  1  0  0  0  0
  9 39  1  0  0  0  0
  9 40  1  0  0  0  0
 10 11  1  0  0  0  0
 10 41  1  0  0  0  0
 10 42  1  0  0  0  0
 11 43  1  0  0  0  0
 12 13  1  0  0  0  0
 12 44  1  0  0  0  0
 13 14  2  0  0  0  0
 13 45  1  0  0  0  0
 14 15  1  0  0  0  0
 15 16  2  0  0  0  0
 15 17  1  0  0  0  0
 16 22  1  0  0  0  0
 17 18  1  0  0  0  0
 18 19  1  0  0  0  0
 18 22  2  0  0  0  0
 19 20  1  0  0  0  0
 19 46  1  0  0  0  0
 19 47  1  0  0  0  0
 20 21  1  0  0  0  0
 20 48  1  0  0  0  0
 20 49  1  0  0  0  0
 21 50  1  0  0  0  0
 21 51  1  0  0  0  0
 21 52  1  0  0  0  0
 22 23  1  0  0  0  0
 23 24  1  0  0  0  0
 23 53  1  0  0  0  0
 23 54  1  0  0  0  0
 24 25  1  0  0  0  0
 25 26  2  0  0  0  0
 25 27  1  0  0  0  0
 26 31  1  0  0  0  0
 27 28  2  0  0  0  0
 28 29  1  0  0  0  0
 28 30  1  0  0  0  0
 29 55  1  0  0  0  0
 29 56  1  0  0  0  0
 30 31  2  0  0  0  0
 30 57  1  0  0  0  0
 31 32  1  0  0  0  0
 32 58  1  0  0  0  0
 32 59  1  0  0  0  0
M  END
