4q3q_ligand
 OpenBabel08222323353D

 28 27  0  0  1  0  0  0  0  0999 V2000
  -44.4770  -17.3970   50.6980 N   0  3  0  0  0  0  0  0  0  0  0  0
  -43.6260  -18.3180   51.4530 C   0  0  2  0  0  0  0  0  0  0  0  0
  -42.5100  -17.5770   52.1640 C   0  0  0  0  0  0  0  0  0  0  0  0
  -42.3600  -16.3470   51.9550 O   0  5  0  0  0  0  0  0  0  0  0  0
  -41.7650  -18.2120   52.9480 O   0  0  0  0  0  0  0  0  0  0  0  0
  -43.0780  -19.4330   50.5390 C   0  0  0  0  0  0  0  0  0  0  0  0
  -42.0190  -18.9850   49.5270 C   0  0  0  0  0  0  0  0  0  0  0  0
  -41.7620  -20.0530   48.4470 C   0  0  0  0  0  0  0  0  0  0  0  0
  -40.4900  -19.6990   47.6680 C   0  0  0  0  0  0  0  0  0  0  0  0
  -40.4430  -20.2400   46.1690 B   0  5  0  0  0  0  0  0  0  0  0  0
  -39.1040  -20.0780   45.4710 O   0  0  0  0  0  0  0  0  0  0  0  0
  -41.6870  -20.0730   45.3300 O   0  0  0  0  0  0  0  0  0  0  0  0
  -40.4670  -21.7690   46.3400 O   0  3  0  0  0  2  0  0  0  0  0  0
  -45.2079  -17.9161   50.2372 H   0  0  0  0  0  0  0  0  0  0  0  0
  -43.9216  -16.9148   50.0087 H   0  0  0  0  0  0  0  0  0  0  0  0
  -44.8876  -16.7259   51.3281 H   0  0  0  0  0  0  0  0  0  0  0  0
  -44.2501  -18.7953   52.2229 H   0  0  0  0  0  0  0  0  0  0  0  0
  -43.9232  -19.8610   49.9801 H   0  0  0  0  0  0  0  0  0  0  0  0
  -42.6310  -20.2084   51.1785 H   0  0  0  0  0  0  0  0  0  0  0  0
  -41.0782  -18.7877   50.0618 H   0  0  0  0  0  0  0  0  0  0  0  0
  -42.3635  -18.0618   49.0381 H   0  0  0  0  0  0  0  0  0  0  0  0
  -42.6170  -20.0882   47.7558 H   0  0  0  0  0  0  0  0  0  0  0  0
  -41.6368  -21.0354   48.9257 H   0  0  0  0  0  0  0  0  0  0  0  0
  -39.8482  -20.5890   47.5900 H   0  0  0  0  0  0  0  0  0  0  0  0
  -39.9473  -18.9007   48.1954 H   0  0  0  0  0  0  0  0  0  0  0  0
  -38.4031  -20.2053   46.0995 H   0  0  0  0  0  0  0  0  0  0  0  0
  -41.7006  -19.1998   44.9561 H   0  0  0  0  0  0  0  0  0  0  0  0
  -40.4226  -22.1828   45.4860 H   0  0  0  0  0  0  0  0  0  0  0  0
  1  2  1  0  0  0  0
  1 14  1  0  0  0  0
  1 15  1  0  0  0  0
  1 16  1  0  0  0  0
  2  3  1  0  0  0  0
  2  6  1  0  0  0  0
  2 17  1  1  0  0  0
  3  4  1  0  0  0  0
  3  5  2  0  0  0  0
  6  7  1  0  0  0  0
  6 18  1  0  0  0  0
  6 19  1  0  0  0  0
  7  8  1  0  0  0  0
  7 20  1  0  0  0  0
  7 21  1  0  0  0  0
  8  9  1  0  0  0  0
  8 22  1  0  0  0  0
  8 23  1  0  0  0  0
  9 10  1  0  0  0  0
  9 24  1  0  0  0  0
  9 25  1  0  0  0  0
 10 11  1  0  0  0  0
 10 12  1  0  0  0  0
 11 26  1  0  0  0  0
 12 27  1  0  0  0  0
 13 10  1  0  0  0  0
 13 28  1  0  0  0  0
M  CHG  4   1   1   4  -1  10  -1  13   1
M  ZCH  2  10   0  13   0
M  HYD  1  13   0
M  ZBO  1  26   0
M  END
