4q3u_ligand
 OpenBabel08222323353D

 25 24  0  0  1  0  0  0  0  0999 V2000
  -44.3650   17.4280   38.8280 N   0  3  0  0  0  0  0  0  0  0  0  0
  -43.5840   18.2620   37.9430 C   0  0  2  0  0  0  0  0  0  0  0  0
  -42.4150   17.4940   37.3300 C   0  0  0  0  0  0  0  0  0  0  0  0
  -41.4770   18.2850   36.7420 O   0  5  0  0  0  0  0  0  0  0  0  0
  -42.9750   19.5210   38.5760 C   0  0  0  0  0  0  0  0  0  0  0  0
  -42.1870   19.2020   39.8460 C   0  0  0  0  0  0  0  0  0  0  0  0
  -41.6100   20.4520   40.2940 N   0  0  0  0  0  0  0  0  0  0  0  0
  -41.3820   20.8830   41.6450 C   0  0  1  0  0  3  0  0  0  0  0  0
  -41.7730   19.9150   42.7000 N   0  0  0  0  0  0  0  0  0  0  0  0
  -40.8590   22.0490   41.8810 N   0  0  0  0  0  0  0  0  0  0  0  0
  -41.6070   20.2050   43.9990 O   0  0  0  0  0  0  0  0  0  0  0  0
  -42.2120   16.2840   37.2820 O   0  0  0  0  0  0  0  0  0  0  0  0
  -45.1253   17.9663   39.2130 H   0  0  0  0  0  0  0  0  0  0  0  0
  -43.7794   17.0911   39.5760 H   0  0  0  0  0  0  0  0  0  0  0  0
  -44.7351   16.6450   38.3123 H   0  0  0  0  0  0  0  0  0  0  0  0
  -44.2571   18.5833   37.1345 H   0  0  0  0  0  0  0  0  0  0  0  0
  -43.7866   20.2194   38.8282 H   0  0  0  0  0  0  0  0  0  0  0  0
  -42.2986   19.9924   37.8479 H   0  0  0  0  0  0  0  0  0  0  0  0
  -41.3927   18.4730   39.6278 H   0  0  0  0  0  0  0  0  0  0  0  0
  -42.8571   18.7944   40.6172 H   0  0  0  0  0  0  0  0  0  0  0  0
  -41.3291   21.1118   39.5547 H   0  0  0  0  0  0  0  0  0  0  0  0
  -42.1778   19.0070   42.4306 H   0  0  0  0  0  0  0  0  0  0  0  0
  -40.6116   22.6705   41.0978 H   0  0  0  0  0  0  0  0  0  0  0  0
  -40.6919   22.3516   42.8513 H   0  0  0  0  0  0  0  0  0  0  0  0
  -41.9099   19.4752   44.5265 H   0  0  0  0  0  0  0  0  0  0  0  0
  1  2  1  0  0  0  0
  1 13  1  0  0  0  0
  1 14  1  0  0  0  0
  1 15  1  0  0  0  0
  2  3  1  0  0  0  0
  2  5  1  0  0  0  0
  2 16  1  6  0  0  0
  3  4  1  0  0  0  0
  3 12  2  0  0  0  0
  5  6  1  0  0  0  0
  5 17  1  0  0  0  0
  5 18  1  0  0  0  0
  6  7  1  0  0  0  0
  6 19  1  0  0  0  0
  6 20  1  0  0  0  0
  7 21  1  0  0  0  0
  8  7  1  6  0  0  0
  8  9  1  0  0  0  0
  8 10  1  0  0  0  0
  9 11  1  0  0  0  0
  9 22  1  0  0  0  0
 10 23  1  0  0  0  0
 10 24  1  0  0  0  0
 11 25  1  0  0  0  0
M  CHG  2   1   1   4  -1
M  END
