4q4i_ligand
 OpenBabel08222323353D

 70 69  0  0  1  0  0  0  0  0999 V2000
   56.2360  -19.7120   37.5560 N   0  3  0  0  0  0  0  0  0  0  0  0
   55.2230  -19.0470   36.7670 C   0  0  2  0  0  0  0  0  0  0  0  0
   53.8700  -19.6930   37.0090 C   0  0  0  0  0  0  0  0  0  0  0  0
   53.0910  -19.0420   38.1760 C   0  0  0  0  0  0  0  0  0  0  0  0
   52.0960  -20.0520   38.7420 C   0  0  0  0  0  0  0  0  0  0  0  0
   52.2820  -17.7650   37.8090 C   0  0  0  0  0  0  0  0  0  0  0  0
   55.5730  -19.0090   35.2790 C   0  0  2  0  0  0  0  0  0  0  0  0
   56.9760  -19.0730   35.0810 O   0  0  0  0  0  0  0  0  0  0  0  0
   55.1260  -17.7080   34.6980 C   0  0  0  0  0  0  0  0  0  0  0  0
   55.7350  -16.6800   34.9610 O   0  0  0  0  0  0  0  0  0  0  0  0
   54.0340  -17.7250   33.9360 N   0  0  0  0  0  0  0  0  0  0  0  0
   53.4570  -16.5130   33.3410 C   0  0  2  0  0  0  0  0  0  0  0  0
   52.0380  -16.5690   33.8160 C   0  0  0  0  0  0  0  0  0  0  0  0
   51.4080  -17.6390   33.8090 O   0  0  0  0  0  0  0  0  0  0  0  0
   53.6810  -16.6110   31.8360 C   0  0  0  0  0  0  0  0  0  0  0  0
   52.6660  -15.8270   31.0200 C   0  0  0  0  0  0  0  0  0  0  0  0
   55.1070  -16.1450   31.4880 C   0  0  0  0  0  0  0  0  0  0  0  0
   51.5290  -15.4460   34.3160 N   0  0  0  0  0  0  0  0  0  0  0  0
   50.1820  -15.4620   34.8880 C   0  0  2  0  0  0  0  0  0  0  0  0
   49.0410  -15.3590   33.9360 C   0  0  0  0  0  0  0  0  0  0  0  0
   48.0970  -16.1150   34.0880 O   0  0  0  0  0  0  0  0  0  0  0  0
   50.0200  -14.3110   35.9020 C   0  0  0  0  0  0  0  0  0  0  0  0
   48.8500  -14.6600   36.8120 C   0  0  0  0  0  0  0  0  0  0  0  0
   51.2230  -13.9490   36.7550 C   0  0  0  0  0  0  0  0  0  0  0  0
   49.0980  -14.4060   33.0130 N   0  0  0  0  0  0  0  0  0  0  0  0
   47.9960  -14.2080   32.0530 C   0  0  2  0  0  0  0  0  0  0  0  0
   48.3400  -14.4390   30.6150 C   0  0  0  0  0  0  0  0  0  0  0  0
   47.3910  -14.8110   29.8790 O   0  5  0  0  0  0  0  0  0  0  0  0
   47.6350  -12.7240   32.1320 C   0  0  0  0  0  0  0  0  0  0  0  0
   46.6670  -12.5560   33.2740 C   0  0  0  0  0  0  0  0  0  0  0  0
   46.7550  -11.4770   33.9090 O   0  5  0  0  0  0  0  0  0  0  0  0
   45.8480  -13.4870   33.5490 O   0  0  0  0  0  0  0  0  0  0  0  0
   49.5360  -14.2170   30.2520 O   0  0  0  0  0  0  0  0  0  0  0  0
   55.9607  -19.7114   38.5257 H   0  0  0  0  0  0  0  0  0  0  0  0
   57.1132  -19.2257   37.4555 H   0  0  0  0  0  0  0  0  0  0  0  0
   56.3402  -20.6625   37.2370 H   0  0  0  0  0  0  0  0  0  0  0  0
   55.1631  -18.0049   37.1141 H   0  0  0  0  0  0  0  0  0  0  0  0
   54.0257  -20.7568   37.2415 H   0  0  0  0  0  0  0  0  0  0  0  0
   53.2689  -19.6022   36.0923 H   0  0  0  0  0  0  0  0  0  0  0  0
   53.8199  -18.7726   38.9546 H   0  0  0  0  0  0  0  0  0  0  0  0
   51.5398  -19.5928   39.5725 H   0  0  0  0  0  0  0  0  0  0  0  0
   52.6389  -20.9356   39.1086 H   0  0  0  0  0  0  0  0  0  0  0  0
   51.3923  -20.3553   37.9528 H   0  0  0  0  0  0  0  0  0  0  0  0
   52.9624  -17.0063   37.3951 H   0  0  0  0  0  0  0  0  0  0  0  0
   51.7950  -17.3674   38.7116 H   0  0  0  0  0  0  0  0  0  0  0  0
   51.5166  -18.0183   37.0607 H   0  0  0  0  0  0  0  0  0  0  0  0
   55.0809  -19.8480   34.7653 H   0  0  0  0  0  0  0  0  0  0  0  0
   57.1648  -19.0477   34.1503 H   0  0  0  0  0  0  0  0  0  0  0  0
   53.5870  -18.6023   33.7612 H   0  0  0  0  0  0  0  0  0  0  0  0
   53.9412  -15.5996   33.7167 H   0  0  0  0  0  0  0  0  0  0  0  0
   53.5860  -17.6701   31.5545 H   0  0  0  0  0  0  0  0  0  0  0  0
   52.8883  -15.9431   29.9490 H   0  0  0  0  0  0  0  0  0  0  0  0
   52.7200  -14.7626   31.2924 H   0  0  0  0  0  0  0  0  0  0  0  0
   51.6553  -16.2080   31.2280 H   0  0  0  0  0  0  0  0  0  0  0  0
   55.8349  -16.7168   32.0823 H   0  0  0  0  0  0  0  0  0  0  0  0
   55.2085  -15.0737   31.7159 H   0  0  0  0  0  0  0  0  0  0  0  0
   55.2962  -16.3117   30.4173 H   0  0  0  0  0  0  0  0  0  0  0  0
   52.0614  -14.5996   34.3011 H   0  0  0  0  0  0  0  0  0  0  0  0
   50.0776  -16.4185   35.4212 H   0  0  0  0  0  0  0  0  0  0  0  0
   49.7606  -13.4108   35.3255 H   0  0  0  0  0  0  0  0  0  0  0  0
   48.7069  -13.8567   37.5497 H   0  0  0  0  0  0  0  0  0  0  0  0
   49.0611  -15.6045   37.3348 H   0  0  0  0  0  0  0  0  0  0  0  0
   47.9368  -14.7709   36.2089 H   0  0  0  0  0  0  0  0  0  0  0  0
   52.0719  -13.6958   36.1029 H   0  0  0  0  0  0  0  0  0  0  0  0
   51.4921  -14.8048   37.3915 H   0  0  0  0  0  0  0  0  0  0  0  0
   50.9765  -13.0841   37.3884 H   0  0  0  0  0  0  0  0  0  0  0  0
   49.9017  -13.8126   32.9681 H   0  0  0  0  0  0  0  0  0  0  0  0
   47.1466  -14.8471   32.3360 H   0  0  0  0  0  0  0  0  0  0  0  0
   47.1661  -12.4005   31.1910 H   0  0  0  0  0  0  0  0  0  0  0  0
   48.5400  -12.1261   32.3152 H   0  0  0  0  0  0  0  0  0  0  0  0
  1  2  1  0  0  0  0
  1 34  1  0  0  0  0
  1 35  1  0  0  0  0
  1 36  1  0  0  0  0
  2  3  1  0  0  0  0
  2  7  1  0  0  0  0
  2 37  1  1  0  0  0
  3  4  1  0  0  0  0
  3 38  1  0  0  0  0
  3 39  1  0  0  0  0
  4  5  1  0  0  0  0
  4  6  1  0  0  0  0
  4 40  1  0  0  0  0
  5 41  1  0  0  0  0
  5 42  1  0  0  0  0
  5 43  1  0  0  0  0
  6 44  1  0  0  0  0
  6 45  1  0  0  0  0
  6 46  1  0  0  0  0
  7  8  1  0  0  0  0
  7  9  1  0  0  0  0
  7 47  1  6  0  0  0
  8 48  1  0  0  0  0
  9 10  2  0  0  0  0
  9 11  1  0  0  0  0
 11 12  1  0  0  0  0
 11 49  1  0  0  0  0
 12 13  1  0  0  0  0
 12 15  1  0  0  0  0
 12 50  1  1  0  0  0
 13 14  2  0  0  0  0
 13 18  1  0  0  0  0
 15 16  1  0  0  0  0
 15 17  1  0  0  0  0
 15 51  1  0  0  0  0
 16 52  1  0  0  0  0
 16 53  1  0  0  0  0
 16 54  1  0  0  0  0
 17 55  1  0  0  0  0
 17 56  1  0  0  0  0
 17 57  1  0  0  0  0
 18 19  1  0  0  0  0
 18 58  1  0  0  0  0
 19 20  1  0  0  0  0
 19 22  1  0  0  0  0
 19 59  1  1  0  0  0
 20 21  2  0  0  0  0
 20 25  1  0  0  0  0
 22 23  1  0  0  0  0
 22 24  1  0  0  0  0
 22 60  1  0  0  0  0
 23 61  1  0  0  0  0
 23 62  1  0  0  0  0
 23 63  1  0  0  0  0
 24 64  1  0  0  0  0
 24 65  1  0  0  0  0
 24 66  1  0  0  0  0
 25 26  1  0  0  0  0
 25 67  1  0  0  0  0
 26 27  1  0  0  0  0
 26 29  1  0  0  0  0
 26 68  1  1  0  0  0
 27 28  1  0  0  0  0
 27 33  2  0  0  0  0
 29 30  1  0  0  0  0
 29 69  1  0  0  0  0
 29 70  1  0  0  0  0
 30 31  1  0  0  0  0
 30 32  2  0  0  0  0
M  CHG  3   1   1  28  -1  31  -1
M  END
