4q9s_ligand
 OpenBabel08222323353D

 24 26  0  0  0  0  0  0  0  0999 V2000
    8.9800    2.5430   26.2910 C   0  0  0  0  0  0  0  0  0  0  0  0
    8.7430    1.2690   26.7600 C   0  0  0  0  0  0  0  0  0  0  0  0
    7.9610    3.2870   25.7220 C   0  0  0  0  0  0  0  0  0  0  0  0
    7.4820    0.7310   26.6500 C   0  0  0  0  0  0  0  0  0  0  0  0
    6.6790    2.7650   25.6090 C   0  0  0  0  0  0  0  0  0  0  0  0
    6.4720    1.4780   26.0850 C   0  0  0  0  0  0  0  0  0  0  0  0
    4.3880    3.0130   25.2950 C   0  0  0  0  0  0  0  0  0  0  0  0
    4.5980    5.2410   23.7040 C   0  0  0  0  0  0  0  0  0  0  0  0
    4.1940    1.8130   26.1080 C   0  0  0  0  0  0  0  0  0  0  0  0
    5.8450    4.7310   24.3670 C   0  0  0  0  0  0  0  0  0  0  0  0
    3.4390    4.5540   23.9420 N   0  0  0  0  0  0  0  0  0  0  0  0
    5.6220    3.4610   25.0580 N   0  0  0  0  0  0  0  0  0  0  0  0
    3.3560    3.4620   24.7350 N   0  0  0  0  0  0  0  0  0  0  0  0
    4.6210    6.2290   22.9880 O   0  0  0  0  0  0  0  0  0  0  0  0
    5.2380    0.8520   25.9960 O   0  0  0  0  0  0  0  0  0  0  0  0
    9.9747    2.9668   26.3685 H   0  0  0  0  0  0  0  0  0  0  0  0
    9.5441    0.6954   27.2120 H   0  0  0  0  0  0  0  0  0  0  0  0
    8.1658    4.2882   25.3606 H   0  0  0  0  0  0  0  0  0  0  0  0
    7.2844   -0.2738   27.0054 H   0  0  0  0  0  0  0  0  0  0  0  0
    3.2526    1.3359   25.7981 H   0  0  0  0  0  0  0  0  0  0  0  0
    4.1202    2.1196   27.1618 H   0  0  0  0  0  0  0  0  0  0  0  0
    6.1880    5.4772   25.0988 H   0  0  0  0  0  0  0  0  0  0  0  0
    6.6203    4.5860   23.6002 H   0  0  0  0  0  0  0  0  0  0  0  0
    2.6018    4.8795   23.5025 H   0  0  0  0  0  0  0  0  0  0  0  0
  1  2  2  0  0  0  0
  1 16  1  0  0  0  0
  2 17  1  0  0  0  0
  3  1  1  0  0  0  0
  3 18  1  0  0  0  0
  4  2  1  0  0  0  0
  4 19  1  0  0  0  0
  5  3  2  0  0  0  0
  5  6  1  0  0  0  0
  6  4  2  0  0  0  0
  6 15  1  0  0  0  0
  7  9  1  0  0  0  0
  7 13  2  0  0  0  0
  8 11  1  0  0  0  0
  8 14  2  0  0  0  0
  9 15  1  0  0  0  0
  9 20  1  0  0  0  0
  9 21  1  0  0  0  0
 10  8  1  0  0  0  0
 10 12  1  0  0  0  0
 10 22  1  0  0  0  0
 10 23  1  0  0  0  0
 11 13  1  0  0  0  0
 11 24  1  0  0  0  0
 12  5  1  0  0  0  0
 12  7  1  0  0  0  0
M  END
