4q9z_ligand
 OpenBabel08222323353D

 42 45  0  0  1  0  0  0  0  0999 V2000
   25.0540   -7.4390  -10.4730 C   0  0  0  0  0  0  0  0  0  0  0  0
   23.9890   -7.1070   -9.4570 C   0  0  0  0  0  0  0  0  0  0  0  0
   24.2660   -6.2110   -8.4360 C   0  0  0  0  0  0  0  0  0  0  0  0
   23.2870   -5.8900   -7.4900 C   0  0  0  0  0  0  0  0  0  0  0  0
   23.5870   -5.0390   -6.5000 O   0  0  0  0  0  0  0  0  0  0  0  0
   22.9400   -5.1520   -5.2350 C   0  0  0  0  0  0  0  0  0  0  0  0
   21.4680   -5.5280   -5.4020 C   0  0  0  0  0  0  0  0  0  0  0  0
   20.6260   -5.2330   -4.4770 N   0  0  0  0  0  0  0  0  0  0  0  0
   19.2810   -5.5790   -4.5610 N   0  0  0  0  0  0  0  0  0  0  0  0
   18.7490   -6.0690   -5.7040 C   0  0  0  0  0  0  0  0  0  0  0  0
   17.5750   -6.3640   -5.7440 O   0  0  0  0  0  0  0  0  0  0  0  0
   19.6070   -6.2110   -6.9530 C   0  0  1  0  0  0  0  0  0  0  0  0
   19.2720   -5.0830   -7.9290 C   0  0  0  0  0  0  0  0  0  0  0  0
   21.0470   -6.1420   -6.5980 N   0  0  0  0  0  0  0  0  0  0  0  0
   22.0420   -6.4890   -7.5600 C   0  0  0  0  0  0  0  0  0  0  0  0
   21.7480   -7.3850   -8.5970 C   0  0  0  0  0  0  0  0  0  0  0  0
   22.7370   -7.7060   -9.5420 C   0  0  0  0  0  0  0  0  0  0  0  0
   22.4540   -8.6100  -10.5950 N   0  0  0  0  0  0  0  0  0  0  0  0
   21.3540   -9.5460  -10.4750 C   0  0  0  0  0  0  0  0  0  0  0  0
   21.4010  -10.7490  -11.5350 C   0  0  0  0  0  0  0  0  0  0  0  0
   21.3170  -11.5510  -10.4100 N   0  3  0  0  0  0  0  0  0  0  0  0
   21.5770  -10.6820   -9.3650 C   0  0  0  0  0  0  0  0  0  0  0  0
   25.9686   -6.8723  -10.2440 H   0  0  0  0  0  0  0  0  0  0  0  0
   24.6982   -7.1700  -11.4785 H   0  0  0  0  0  0  0  0  0  0  0  0
   25.2718   -8.5166  -10.4372 H   0  0  0  0  0  0  0  0  0  0  0  0
   25.2478   -5.7562   -8.3704 H   0  0  0  0  0  0  0  0  0  0  0  0
   23.0072   -4.1879   -4.7096 H   0  0  0  0  0  0  0  0  0  0  0  0
   23.4442   -5.9289   -4.6416 H   0  0  0  0  0  0  0  0  0  0  0  0
   18.6950   -5.4629   -3.7591 H   0  0  0  0  0  0  0  0  0  0  0  0
   19.3970   -7.1804   -7.4285 H   0  0  0  0  0  0  0  0  0  0  0  0
   18.2054   -5.1319   -8.1937 H   0  0  0  0  0  0  0  0  0  0  0  0
   19.8808   -5.1922   -8.8386 H   0  0  0  0  0  0  0  0  0  0  0  0
   19.4886   -4.1133   -7.4570 H   0  0  0  0  0  0  0  0  0  0  0  0
   20.7616   -7.8285   -8.6696 H   0  0  0  0  0  0  0  0  0  0  0  0
   23.0313   -8.6022  -11.4480 H   0  0  0  0  0  0  0  0  0  0  0  0
   20.3994   -9.0030  -10.4139 H   0  0  0  0  0  0  0  0  0  0  0  0
   22.3357  -10.8366  -12.1083 H   0  0  0  0  0  0  0  0  0  0  0  0
   20.5432  -10.8072  -12.2211 H   0  0  0  0  0  0  0  0  0  0  0  0
   22.0032  -12.2886  -10.4428 H   0  0  0  0  0  0  0  0  0  0  0  0
   20.3964  -11.9521  -10.3228 H   0  0  0  0  0  0  0  0  0  0  0  0
   20.8412  -10.6938   -8.5474 H   0  0  0  0  0  0  0  0  0  0  0  0
   22.5923  -10.7390   -8.9455 H   0  0  0  0  0  0  0  0  0  0  0  0
  1  2  1  0  0  0  0
  1 23  1  0  0  0  0
  1 24  1  0  0  0  0
  1 25  1  0  0  0  0
  2  3  2  0  0  0  0
  2 17  1  0  0  0  0
  3  4  1  0  0  0  0
  3 26  1  0  0  0  0
  4  5  1  0  0  0  0
  4 15  2  0  0  0  0
  5  6  1  0  0  0  0
  6  7  1  0  0  0  0
  6 27  1  0  0  0  0
  6 28  1  0  0  0  0
  7  8  2  0  0  0  0
  7 14  1  0  0  0  0
  8  9  1  0  0  0  0
  9 10  1  0  0  0  0
  9 29  1  0  0  0  0
 10 11  2  0  0  0  0
 10 12  1  0  0  0  0
 12 13  1  0  0  0  0
 12 14  1  0  0  0  0
 12 30  1  6  0  0  0
 13 31  1  0  0  0  0
 13 32  1  0  0  0  0
 13 33  1  0  0  0  0
 14 15  1  0  0  0  0
 15 16  1  0  0  0  0
 16 17  2  0  0  0  0
 16 34  1  0  0  0  0
 17 18  1  0  0  0  0
 18 19  1  0  0  0  0
 18 35  1  0  0  0  0
 19 20  1  0  0  0  0
 19 22  1  0  0  0  0
 19 36  1  0  0  0  0
 20 21  1  0  0  0  0
 20 37  1  0  0  0  0
 20 38  1  0  0  0  0
 21 22  1  0  0  0  0
 21 39  1  0  0  0  0
 21 40  1  0  0  0  0
 22 41  1  0  0  0  0
 22 42  1  0  0  0  0
M  CHG  1  21   1
M  END
