4qaa_ligand
 OpenBabel08222323353D

 52 53  0  0  0  0  0  0  0  0999 V2000
   -6.4260  -15.3570   61.9750 C   0  0  0  0  0  0  0  0  0  0  0  0
   -6.2970  -13.8120   61.9340 C   0  0  0  0  0  0  0  0  0  0  0  0
   -6.8990  -13.1830   60.6480 C   0  0  0  0  0  0  0  0  0  0  0  0
   -6.5860  -11.6550   60.4990 C   0  0  0  0  0  0  0  0  0  0  0  0
   -6.1080  -11.2430   59.0390 C   0  0  0  0  0  0  0  0  0  0  0  0
   -7.0690  -11.7470   57.8810 C   0  0  0  0  0  0  0  0  0  0  0  0
   -6.4630  -11.8540   56.3910 C   0  0  0  0  0  0  0  0  0  0  0  0
   -7.4490  -11.3310   55.2210 C   0  0  0  0  0  0  0  0  0  0  0  0
   -6.9870  -11.5500   53.7790 N   0  0  0  0  0  0  0  0  0  0  0  0
   -6.1030  -10.6660   53.0430 C   0  0  0  0  0  0  0  0  0  0  0  0
   -6.5170  -10.0970   51.7470 C   0  0  0  0  0  0  0  0  0  0  0  0
   -5.5760   -9.2420   51.0550 C   0  0  0  0  0  0  0  0  0  0  0  0
   -4.3600   -8.9930   51.6160 N   0  0  0  0  0  0  0  0  0  0  0  0
   -4.0240   -9.5550   52.8200 C   0  0  0  0  0  0  0  0  0  0  0  0
   -2.7360   -9.2720   53.3680 N   0  0  0  0  0  0  0  0  0  0  0  0
   -4.8510  -10.3870   53.5750 N   0  0  0  0  0  0  0  0  0  0  0  0
   -5.8170   -8.5090   49.6420 C   0  0  0  0  0  0  0  0  0  0  0  0
   -6.2980   -9.1850   48.4940 C   0  0  0  0  0  0  0  0  0  0  0  0
   -6.4910   -8.5470   47.1910 C   0  0  0  0  0  0  0  0  0  0  0  0
   -6.1890   -7.1810   47.0020 C   0  0  0  0  0  0  0  0  0  0  0  0
   -6.3740   -6.5730   45.7810 O   0  0  0  0  0  0  0  0  0  0  0  0
   -5.7520   -5.2570   45.5790 C   0  0  0  0  0  0  0  0  0  0  0  0
   -5.6890   -6.4790   48.1150 C   0  0  0  0  0  0  0  0  0  0  0  0
   -5.5150   -7.1420   49.3780 C   0  0  0  0  0  0  0  0  0  0  0  0
   -5.9824  -15.7373   62.9070 H   0  0  0  0  0  0  0  0  0  0  0  0
   -5.8982  -15.7920   61.1135 H   0  0  0  0  0  0  0  0  0  0  0  0
   -7.4888  -15.6375   61.9337 H   0  0  0  0  0  0  0  0  0  0  0  0
   -5.2303  -13.5485   61.9860 H   0  0  0  0  0  0  0  0  0  0  0  0
   -6.8209  -13.3939   62.8062 H   0  0  0  0  0  0  0  0  0  0  0  0
   -7.9908  -13.3146   60.6733 H   0  0  0  0  0  0  0  0  0  0  0  0
   -6.4862  -13.7104   59.7754 H   0  0  0  0  0  0  0  0  0  0  0  0
   -5.7913  -11.3915   61.2125 H   0  0  0  0  0  0  0  0  0  0  0  0
   -7.4975  -11.0881   60.7395 H   0  0  0  0  0  0  0  0  0  0  0  0
   -5.1081  -11.6688   58.8690 H   0  0  0  0  0  0  0  0  0  0  0  0
   -6.0524  -10.1455   58.9897 H   0  0  0  0  0  0  0  0  0  0  0  0
   -7.9223  -11.0541   57.8386 H   0  0  0  0  0  0  0  0  0  0  0  0
   -7.4241  -12.7492   58.1629 H   0  0  0  0  0  0  0  0  0  0  0  0
   -6.2258  -12.9096   56.1926 H   0  0  0  0  0  0  0  0  0  0  0  0
   -5.5397  -11.2573   56.3530 H   0  0  0  0  0  0  0  0  0  0  0  0
   -7.5907  -10.2496   55.3642 H   0  0  0  0  0  0  0  0  0  0  0  0
   -8.4130  -11.8465   55.3433 H   0  0  0  0  0  0  0  0  0  0  0  0
   -7.3304  -12.3906   53.2929 H   0  0  0  0  0  0  0  0  0  0  0  0
   -7.4929  -10.3117   51.3268 H   0  0  0  0  0  0  0  0  0  0  0  0
   -2.0810   -8.6637   52.8563 H   0  0  0  0  0  0  0  0  0  0  0  0
   -2.4621   -9.6762   54.2749 H   0  0  0  0  0  0  0  0  0  0  0  0
   -6.5376  -10.2382   48.5860 H   0  0  0  0  0  0  0  0  0  0  0  0
   -6.8707   -9.1309   46.3604 H   0  0  0  0  0  0  0  0  0  0  0  0
   -5.9816   -4.8945   44.5661 H   0  0  0  0  0  0  0  0  0  0  0  0
   -4.6620   -5.3443   45.6988 H   0  0  0  0  0  0  0  0  0  0  0  0
   -6.1468   -4.5471   46.3207 H   0  0  0  0  0  0  0  0  0  0  0  0
   -5.4332   -5.4300   48.0186 H   0  0  0  0  0  0  0  0  0  0  0  0
   -5.1211   -6.5529   50.1983 H   0  0  0  0  0  0  0  0  0  0  0  0
  1  2  1  0  0  0  0
  1 25  1  0  0  0  0
  1 26  1  0  0  0  0
  1 27  1  0  0  0  0
  2  3  1  0  0  0  0
  2 28  1  0  0  0  0
  2 29  1  0  0  0  0
  3  4  1  0  0  0  0
  3 30  1  0  0  0  0
  3 31  1  0  0  0  0
  4  5  1  0  0  0  0
  4 32  1  0  0  0  0
  4 33  1  0  0  0  0
  5  6  1  0  0  0  0
  5 34  1  0  0  0  0
  5 35  1  0  0  0  0
  6  7  1  0  0  0  0
  6 36  1  0  0  0  0
  6 37  1  0  0  0  0
  7  8  1  0  0  0  0
  7 38  1  0  0  0  0
  7 39  1  0  0  0  0
  8  9  1  0  0  0  0
  8 40  1  0  0  0  0
  8 41  1  0  0  0  0
  9 10  1  0  0  0  0
  9 42  1  0  0  0  0
 10 11  2  0  0  0  0
 10 16  1  0  0  0  0
 11 12  1  0  0  0  0
 11 43  1  0  0  0  0
 12 13  2  0  0  0  0
 12 17  1  0  0  0  0
 13 14  1  0  0  0  0
 14 15  1  0  0  0  0
 14 16  2  0  0  0  0
 15 44  1  0  0  0  0
 15 45  1  0  0  0  0
 17 18  2  0  0  0  0
 17 24  1  0  0  0  0
 18 19  1  0  0  0  0
 18 46  1  0  0  0  0
 19 20  2  0  0  0  0
 19 47  1  0  0  0  0
 20 21  1  0  0  0  0
 20 23  1  0  0  0  0
 21 22  1  0  0  0  0
 22 48  1  0  0  0  0
 22 49  1  0  0  0  0
 22 50  1  0  0  0  0
 23 24  2  0  0  0  0
 23 51  1  0  0  0  0
 24 52  1  0  0  0  0
M  END
