4qag_ligand
 OpenBabel08222323353D

 24 25  0  0  0  0  0  0  0  0999 V2000
    5.8230   29.1990    3.9310 C   0  0  0  0  0  0  0  0  0  0  0  0
    6.9370   28.3580    3.9400 C   0  0  0  0  0  0  0  0  0  0  0  0
    8.2220   28.9070    4.0410 C   0  0  0  0  0  0  0  0  0  0  0  0
    8.3700   30.2940    4.1510 C   0  0  0  0  0  0  0  0  0  0  0  0
    7.2670   31.1530    4.1500 C   0  0  0  0  0  0  0  0  0  0  0  0
    5.9800   30.6090    4.0380 C   0  0  0  0  0  0  0  0  0  0  0  0
    9.3270   28.1240    4.0630 O   0  0  0  0  0  0  0  0  0  0  0  0
    9.6020   30.8200    4.2450 O   0  0  0  0  0  0  0  0  0  0  0  0
    6.7630   27.0020    3.8320 O   0  0  0  0  0  0  0  0  0  0  0  0
    5.5560   26.3450    3.7160 C   0  0  0  0  0  0  0  0  0  0  0  0
    4.3510   27.2670    3.7200 C   0  0  0  0  0  0  0  0  0  0  0  0
    4.4940   28.6120    3.8200 C   0  0  0  0  0  0  0  0  0  0  0  0
    5.4450   25.1290    3.6190 O   0  0  0  0  0  0  0  0  0  0  0  0
    3.2890   29.5600    3.8230 C   0  0  0  0  0  0  0  0  0  0  0  0
    3.1540   30.4340    5.0770 C   0  0  0  0  0  0  0  0  0  0  0  0
    3.2630   29.8670    6.1880 O   0  5  0  0  0  0  0  0  0  0  0  0
    2.9550   31.6560    4.8940 O   0  0  0  0  0  0  0  0  0  0  0  0
    7.4051   32.2248    4.2347 H   0  0  0  0  0  0  0  0  0  0  0  0
    5.1113   31.2574    4.0330 H   0  0  0  0  0  0  0  0  0  0  0  0
    9.7870   28.2504    4.8846 H   0  0  0  0  0  0  0  0  0  0  0  0
   10.2453   30.1210    4.2332 H   0  0  0  0  0  0  0  0  0  0  0  0
    3.3521   26.8406    3.6411 H   0  0  0  0  0  0  0  0  0  0  0  0
    2.3767   28.9524    3.7309 H   0  0  0  0  0  0  0  0  0  0  0  0
    3.3761   30.2253    2.9513 H   0  0  0  0  0  0  0  0  0  0  0  0
  1  2  2  0  0  0  0
  1  6  1  0  0  0  0
  1 12  1  0  0  0  0
  2  3  1  0  0  0  0
  2  9  1  0  0  0  0
  3  4  2  0  0  0  0
  3  7  1  0  0  0  0
  4  5  1  0  0  0  0
  4  8  1  0  0  0  0
  5  6  2  0  0  0  0
  5 18  1  0  0  0  0
  6 19  1  0  0  0  0
  7 20  1  0  0  0  0
  8 21  1  0  0  0  0
  9 10  1  0  0  0  0
 10 11  1  0  0  0  0
 10 13  2  0  0  0  0
 11 12  2  0  0  0  0
 11 22  1  0  0  0  0
 12 14  1  0  0  0  0
 14 15  1  0  0  0  0
 14 23  1  0  0  0  0
 14 24  1  0  0  0  0
 15 16  1  0  0  0  0
 15 17  2  0  0  0  0
M  CHG  1  16  -1
M  END
