4qfr_ligand
 OpenBabel08222323353D

 38 41  0  0  0  0  0  0  0  0999 V2000
   42.1760  -80.8120  -39.3310 C   0  0  0  0  0  0  0  0  0  0  0  0
   40.5720  -82.8040  -39.0150 N   0  0  0  0  0  0  0  0  0  0  0  0
   46.2070  -78.5140  -39.4770 C   0  0  0  0  0  0  0  0  0  0  0  0
   45.8900  -79.7840  -39.3460 C   0  0  0  0  0  0  0  0  0  0  0  0
   46.8150  -81.9630  -40.1320 C   0  0  0  0  0  0  0  0  0  0  0  0
   48.0870  -80.7000  -38.5510 C   0  0  0  0  0  0  0  0  0  0  0  0
   41.2600  -81.9000  -39.1590 C   0  0  0  0  0  0  0  0  0  0  0  0
   46.9350  -80.8410  -39.3240 C   0  0  0  0  0  0  0  0  0  0  0  0
   51.2760  -85.6480  -38.4480 C   0  0  0  0  0  0  0  0  0  0  0  0
   51.3280  -85.3530  -40.8190 C   0  0  0  0  0  0  0  0  0  0  0  0
   50.4390  -84.5440  -38.3250 C   0  0  0  0  0  0  0  0  0  0  0  0
   44.4420  -79.9210  -39.3590 C   0  0  0  0  0  0  0  0  0  0  0  0
   43.8360  -78.6840  -39.5320 C   0  0  0  0  0  0  0  0  0  0  0  0
   42.4930  -78.4680  -39.6330 N   0  0  0  0  0  0  0  0  0  0  0  0
   41.5890  -79.5000  -39.5560 C   0  0  0  0  0  0  0  0  0  0  0  0
   43.5500  -81.0630  -39.2390 C   0  0  0  0  0  0  0  0  0  0  0  0
   44.9370  -77.3780  -39.6410 S   0  0  0  0  0  0  0  0  0  0  0  0
   47.8140  -82.9160  -40.1680 C   0  0  0  0  0  0  0  0  0  0  0  0
   48.9740  -82.7780  -39.4150 C   0  0  0  0  0  0  0  0  0  0  0  0
   49.0950  -81.6460  -38.6120 C   0  0  0  0  0  0  0  0  0  0  0  0
   50.0320  -83.8250  -39.4580 C   0  0  0  0  0  0  0  0  0  0  0  0
   50.5150  -84.2380  -40.7020 C   0  0  0  0  0  0  0  0  0  0  0  0
   51.7050  -86.0550  -39.6970 C   0  0  0  0  0  0  0  0  0  0  0  0
   50.0180  -84.2150  -37.0820 O   0  0  0  0  0  0  0  0  0  0  0  0
   44.0770  -82.3010  -39.0450 O   0  0  0  0  0  0  0  0  0  0  0  0
   40.3950  -79.2690  -39.7040 O   0  0  0  0  0  0  0  0  0  0  0  0
   47.7540  -77.8270  -39.5090 Cl  0  0  0  0  0  0  0  0  0  0  0  0
   45.9278  -82.0927  -40.7413 H   0  0  0  0  0  0  0  0  0  0  0  0
   48.1937  -79.8422  -37.8969 H   0  0  0  0  0  0  0  0  0  0  0  0
   51.5920  -86.1894  -37.5637 H   0  0  0  0  0  0  0  0  0  0  0  0
   51.6683  -85.6736  -41.7970 H   0  0  0  0  0  0  0  0  0  0  0  0
   42.1579  -77.5353  -39.7664 H   0  0  0  0  0  0  0  0  0  0  0  0
   47.6907  -83.7902  -40.7970 H   0  0  0  0  0  0  0  0  0  0  0  0
   49.9948  -81.5038  -38.0245 H   0  0  0  0  0  0  0  0  0  0  0  0
   50.2491  -83.6765  -41.5903 H   0  0  0  0  0  0  0  0  0  0  0  0
   52.3395  -86.9286  -39.7931 H   0  0  0  0  0  0  0  0  0  0  0  0
   50.3990  -84.8143  -36.4509 H   0  0  0  0  0  0  0  0  0  0  0  0
   43.3742  -82.9376  -38.9869 H   0  0  0  0  0  0  0  0  0  0  0  0
  1  7  1  0  0  0  0
  1 15  1  0  0  0  0
  3 17  1  0  0  0  0
  3 27  1  0  0  0  0
  4  3  2  0  0  0  0
  4 12  1  0  0  0  0
  5  8  2  0  0  0  0
  5 28  1  0  0  0  0
  6  8  1  0  0  0  0
  6 29  1  0  0  0  0
  7  2  3  0  0  0  0
  8  4  1  0  0  0  0
  9 23  1  0  0  0  0
  9 30  1  0  0  0  0
 10 22  1  0  0  0  0
 10 31  1  0  0  0  0
 11  9  2  0  0  0  0
 11 24  1  0  0  0  0
 12 13  2  0  0  0  0
 12 16  1  0  0  0  0
 13 14  1  0  0  0  0
 13 17  1  0  0  0  0
 14 15  1  0  0  0  0
 14 32  1  0  0  0  0
 15 26  2  0  0  0  0
 16  1  2  0  0  0  0
 16 25  1  0  0  0  0
 18  5  1  0  0  0  0
 18 33  1  0  0  0  0
 19 18  2  0  0  0  0
 19 20  1  0  0  0  0
 19 21  1  0  0  0  0
 20  6  2  0  0  0  0
 20 34  1  0  0  0  0
 21 11  1  0  0  0  0
 21 22  2  0  0  0  0
 22 35  1  0  0  0  0
 23 10  2  0  0  0  0
 23 36  1  0  0  0  0
 24 37  1  0  0  0  0
 25 38  1  0  0  0  0
M  END
