4qgf_ligand
 OpenBabel08222323353D

 67 70  0  0  1  0  0  0  0  0999 V2000
   13.0440    5.4610    5.5860 C   0  0  0  0  0  0  0  0  0  0  0  0
   12.0980    4.4950    4.8960 C   0  0  0  0  0  0  0  0  0  0  0  0
   11.9080    3.1910    5.6720 C   0  0  2  0  0  0  0  0  0  0  0  0
   13.1720    2.4930    6.1250 C   0  0  0  0  0  0  0  0  0  0  0  0
   13.1430    2.1290    7.4590 C   0  0  0  0  0  0  0  0  0  0  0  0
   14.1970    1.4660    8.0420 C   0  0  0  0  0  0  0  0  0  0  0  0
   15.3230    1.1840    7.2940 C   0  0  0  0  0  0  0  0  0  0  0  0
   15.3700    1.5550    5.9590 C   0  0  0  0  0  0  0  0  0  0  0  0
   14.3120    2.2240    5.3630 C   0  0  0  0  0  0  0  0  0  0  0  0
   14.3890    2.5930    4.0030 O   0  0  0  0  0  0  0  0  0  0  0  0
   15.4380    3.5420    3.7400 C   0  0  0  0  0  0  0  0  0  0  0  0
   16.5310    1.3120    5.2580 O   0  0  0  0  0  0  0  0  0  0  0  0
   16.5840    0.3220    4.2920 C   0  0  0  0  0  0  0  0  0  0  0  0
   15.7640   -0.7930    4.2920 C   0  0  0  0  0  0  0  0  0  0  0  0
   15.9070   -1.7410    3.2970 C   0  0  0  0  0  0  0  0  0  0  0  0
   16.8670   -1.5830    2.3230 C   0  0  0  0  0  0  0  0  0  0  0  0
   17.6870   -0.4720    2.3480 C   0  0  0  0  0  0  0  0  0  0  0  0
   17.5630    0.4870    3.3360 C   0  0  0  0  0  0  0  0  0  0  0  0
   18.8830   -0.2610    1.1330 Cl  0  0  0  0  0  0  0  0  0  0  0  0
   16.4430    0.4850    7.9570 C   0  0  0  0  0  0  0  0  0  0  0  0
   16.8330   -0.6070    7.4630 O   0  5  0  0  0  0  0  0  0  0  0  0
   16.8990    1.0210    8.9980 O   0  0  0  0  0  0  0  0  0  0  0  0
   10.9460    2.3150    4.9090 N   0  3  2  0  0  0  0  0  0  0  0  0
   10.2060    1.3490    5.8010 C   0  0  0  0  0  0  0  0  0  0  0  0
    9.0640    0.7360    5.0100 C   0  0  0  0  0  0  0  0  0  0  0  0
    9.5960    0.0350    3.7610 C   0  0  0  0  0  0  0  0  0  0  0  0
   10.4740    0.9560    2.9020 C   0  0  1  0  0  0  0  0  0  0  0  0
   11.5450    1.6190    3.7330 C   0  0  0  0  0  0  0  0  0  0  0  0
   11.0500    0.2860    1.7440 N   0  0  0  0  0  0  0  0  0  0  0  0
   11.6110   -0.9790    1.8660 C   0  0  0  0  0  0  0  0  0  0  0  0
   12.0500   -1.7150    0.8270 C   0  0  0  0  0  0  0  0  0  0  0  0
   11.9110   -1.1260   -0.5290 C   0  0  0  0  0  0  0  0  0  0  0  0
   12.2640   -1.7380   -1.5360 O   0  0  0  0  0  0  0  0  0  0  0  0
   11.3350    0.1250   -0.5640 N   0  0  0  0  0  0  0  0  0  0  0  0
   10.9230    0.8950    0.5150 C   0  0  0  0  0  0  0  0  0  0  0  0
   10.4830    2.0340    0.3650 O   0  0  0  0  0  0  0  0  0  0  0  0
   12.6500   -3.0760    0.9450 C   0  0  0  0  0  0  0  0  0  0  0  0
   13.1391    6.3754    4.9820 H   0  0  0  0  0  0  0  0  0  0  0  0
   14.0320    4.9904    5.6969 H   0  0  0  0  0  0  0  0  0  0  0  0
   12.6464    5.7173    6.5791 H   0  0  0  0  0  0  0  0  0  0  0  0
   12.5041    4.2558    3.9021 H   0  0  0  0  0  0  0  0  0  0  0  0
   11.1184    4.9827    4.7843 H   0  0  0  0  0  0  0  0  0  0  0  0
   11.3945    3.4691    6.6042 H   0  0  0  0  0  0  0  0  0  0  0  0
   12.2718    2.3713    8.0569 H   0  0  0  0  0  0  0  0  0  0  0  0
   14.1444    1.1665    9.0825 H   0  0  0  0  0  0  0  0  0  0  0  0
   15.4480    3.7898    2.6683 H   0  0  0  0  0  0  0  0  0  0  0  0
   16.4069    3.1058    4.0245 H   0  0  0  0  0  0  0  0  0  0  0  0
   15.2611    4.4559    4.3260 H   0  0  0  0  0  0  0  0  0  0  0  0
   15.0160   -0.9214    5.0660 H   0  0  0  0  0  0  0  0  0  0  0  0
   15.2614   -2.6117    3.2833 H   0  0  0  0  0  0  0  0  0  0  0  0
   16.9786   -2.3258    1.5415 H   0  0  0  0  0  0  0  0  0  0  0  0
   18.2204    1.3486    3.3583 H   0  0  0  0  0  0  0  0  0  0  0  0
   10.2501    2.9401    4.5335 H   0  0  0  0  0  0  0  0  0  0  0  0
    9.8060    1.8838    6.6751 H   0  0  0  0  0  0  0  0  0  0  0  0
   10.8907    0.5566    6.1376 H   0  0  0  0  0  0  0  0  0  0  0  0
    8.3643    1.5298    4.7096 H   0  0  0  0  0  0  0  0  0  0  0  0
    8.5388    0.0035    5.6405 H   0  0  0  0  0  0  0  0  0  0  0  0
    8.7425   -0.3045    3.1558 H   0  0  0  0  0  0  0  0  0  0  0  0
   10.1942   -0.8343    4.0716 H   0  0  0  0  0  0  0  0  0  0  0  0
    9.8196    1.7520    2.5172 H   0  0  0  0  0  0  0  0  0  0  0  0
   12.2517    0.8543    4.0876 H   0  0  0  0  0  0  0  0  0  0  0  0
   12.0800    2.3534    3.1129 H   0  0  0  0  0  0  0  0  0  0  0  0
   11.7016   -1.4024    2.8652 H   0  0  0  0  0  0  0  0  0  0  0  0
   11.1980    0.5241   -1.4706 H   0  0  0  0  0  0  0  0  0  0  0  0
   12.6844   -3.3709    2.0042 H   0  0  0  0  0  0  0  0  0  0  0  0
   13.6704   -3.0637    0.5345 H   0  0  0  0  0  0  0  0  0  0  0  0
   12.0375   -3.7967    0.3835 H   0  0  0  0  0  0  0  0  0  0  0  0
  1  2  1  0  0  0  0
  1 38  1  0  0  0  0
  1 39  1  0  0  0  0
  1 40  1  0  0  0  0
  2  3  1  0  0  0  0
  2 41  1  0  0  0  0
  2 42  1  0  0  0  0
  3  4  1  0  0  0  0
  3 23  1  0  0  0  0
  3 43  1  1  0  0  0
  4  5  2  0  0  0  0
  4  9  1  0  0  0  0
  5  6  1  0  0  0  0
  5 44  1  0  0  0  0
  6  7  2  0  0  0  0
  6 45  1  0  0  0  0
  7  8  1  0  0  0  0
  7 20  1  0  0  0  0
  8  9  2  0  0  0  0
  8 12  1  0  0  0  0
  9 10  1  0  0  0  0
 10 11  1  0  0  0  0
 11 46  1  0  0  0  0
 11 47  1  0  0  0  0
 11 48  1  0  0  0  0
 12 13  1  0  0  0  0
 13 14  2  0  0  0  0
 13 18  1  0  0  0  0
 14 15  1  0  0  0  0
 14 49  1  0  0  0  0
 15 16  2  0  0  0  0
 15 50  1  0  0  0  0
 16 17  1  0  0  0  0
 16 51  1  0  0  0  0
 17 18  2  0  0  0  0
 17 19  1  0  0  0  0
 18 52  1  0  0  0  0
 20 21  1  0  0  0  0
 20 22  2  0  0  0  0
 23 24  1  0  0  0  0
 23 28  1  0  0  0  0
 23 53  1  6  0  0  0
 24 25  1  0  0  0  0
 24 54  1  0  0  0  0
 24 55  1  0  0  0  0
 25 26  1  0  0  0  0
 25 56  1  0  0  0  0
 25 57  1  0  0  0  0
 26 27  1  0  0  0  0
 26 58  1  0  0  0  0
 26 59  1  0  0  0  0
 27 28  1  0  0  0  0
 27 29  1  0  0  0  0
 27 60  1  6  0  0  0
 28 61  1  0  0  0  0
 28 62  1  0  0  0  0
 29 30  1  0  0  0  0
 29 35  1  0  0  0  0
 30 31  2  0  0  0  0
 30 63  1  0  0  0  0
 31 32  1  0  0  0  0
 31 37  1  0  0  0  0
 32 33  2  0  0  0  0
 32 34  1  0  0  0  0
 34 35  1  0  0  0  0
 34 64  1  0  0  0  0
 35 36  2  0  0  0  0
 37 65  1  0  0  0  0
 37 66  1  0  0  0  0
 37 67  1  0  0  0  0
M  CHG  2  21  -1  23   1
M  END
