4qgh_ligand
 OpenBabel08222323353D

 69 72  0  0  1  0  0  0  0  0999 V2000
   15.9880   -2.0650    3.1700 C   0  0  0  0  0  0  0  0  0  0  0  0
   14.4520    0.9130    8.1210 C   0  0  0  0  0  0  0  0  0  0  0  0
   13.4400    1.6810    7.5640 C   0  0  0  0  0  0  0  0  0  0  0  0
   15.9240   -1.1540    4.2120 C   0  0  0  0  0  0  0  0  0  0  0  0
   16.9300   -1.8830    2.1680 C   0  0  0  0  0  0  0  0  0  0  0  0
   17.7050    0.1350    3.2640 C   0  0  0  0  0  0  0  0  0  0  0  0
   15.5810    0.6340    7.3740 C   0  0  0  0  0  0  0  0  0  0  0  0
   13.5180    2.1530    6.2540 C   0  0  0  0  0  0  0  0  0  0  0  0
   16.7820   -0.0750    4.2680 C   0  0  0  0  0  0  0  0  0  0  0  0
   15.6620    1.0740    6.0640 C   0  0  0  0  0  0  0  0  0  0  0  0
   14.6480    1.8390    5.5220 C   0  0  0  0  0  0  0  0  0  0  0  0
   17.7520   -0.7730    2.2230 C   0  0  0  0  0  0  0  0  0  0  0  0
   11.4530   -1.1250    2.1470 C   0  0  0  0  0  0  0  0  0  0  0  0
   11.8380   -1.8750    1.0970 C   0  0  0  0  0  0  0  0  0  0  0  0
   11.6200   -1.2910   -0.2490 C   0  0  0  0  0  0  0  0  0  0  0  0
   10.7320    0.7630    0.8240 C   0  0  0  0  0  0  0  0  0  0  0  0
   16.6700   -0.1790    7.9520 C   0  0  0  0  0  0  0  0  0  0  0  0
    9.2760    0.8880    5.4350 C   0  0  0  0  0  0  0  0  0  0  0  0
    9.6520    0.0570    4.2160 C   0  0  0  0  0  0  0  0  0  0  0  0
   10.5610    1.4200    6.0440 C   0  0  0  0  0  0  0  0  0  0  0  0
   11.7010    1.4900    3.9190 C   0  0  0  0  0  0  0  0  0  0  0  0
   10.4820    0.8870    3.2300 C   0  0  1  0  0  0  0  0  0  0  0  0
   12.4410   -3.2430    1.2310 C   0  0  0  0  0  0  0  0  0  0  0  0
   13.7670    5.7860    5.6120 C   0  0  0  0  0  0  0  0  0  0  0  0
   12.5230    6.2930    7.6950 C   0  0  0  0  0  0  0  0  0  0  0  0
   12.0180    4.1740    6.5160 C   0  0  0  0  0  0  0  0  0  0  0  0
   12.4480    3.0180    5.5960 C   0  0  2  0  0  0  0  0  0  0  0  0
   13.1070    5.1850    6.8390 C   0  0  0  0  0  0  0  0  0  0  0  0
   11.0880   -0.0030   -0.2680 N   0  0  0  0  0  0  0  0  0  0  0  0
   10.8910    0.1360    2.0440 N   0  0  0  0  0  0  0  0  0  0  0  0
   11.2670    2.2820    5.0730 N   0  3  2  0  0  0  0  0  0  0  0  0
   11.8990   -1.8990   -1.2820 O   0  0  0  0  0  0  0  0  0  0  0  0
   10.3320    1.9200    0.7080 O   0  0  0  0  0  0  0  0  0  0  0  0
   17.1640   -1.1550    7.4100 O   0  5  0  0  0  0  0  0  0  0  0  0
   17.0350    0.3170    9.1620 O   0  0  0  0  0  0  0  0  0  0  0  0
   16.7900    0.8660    5.3030 O   0  0  0  0  0  0  0  0  0  0  0  0
   14.8020    2.2760    4.2480 F   0  0  0  0  0  0  0  0  0  0  0  0
   18.8980   -0.4940    0.9790 Cl  0  0  0  0  0  0  0  0  0  0  0  0
   15.3099   -2.9101    3.1381 H   0  0  0  0  0  0  0  0  0  0  0  0
   14.3583    0.5352    9.1327 H   0  0  0  0  0  0  0  0  0  0  0  0
   12.5676    1.9200    8.1613 H   0  0  0  0  0  0  0  0  0  0  0  0
   15.1879   -1.2912    4.9959 H   0  0  0  0  0  0  0  0  0  0  0  0
   17.0197   -2.5974    1.3576 H   0  0  0  0  0  0  0  0  0  0  0  0
   18.3740    0.9875    3.2909 H   0  0  0  0  0  0  0  0  0  0  0  0
   11.5932   -1.5384    3.1447 H   0  0  0  0  0  0  0  0  0  0  0  0
    8.7459    0.2610    6.1670 H   0  0  0  0  0  0  0  0  0  0  0  0
    8.6297    1.7253    5.1330 H   0  0  0  0  0  0  0  0  0  0  0  0
    8.7344   -0.2864    3.7159 H   0  0  0  0  0  0  0  0  0  0  0  0
   10.2408   -0.8138    4.5401 H   0  0  0  0  0  0  0  0  0  0  0  0
   11.2098    0.5753    6.3189 H   0  0  0  0  0  0  0  0  0  0  0  0
   10.3214    2.0063    6.9434 H   0  0  0  0  0  0  0  0  0  0  0  0
   12.2394    2.1376    3.2114 H   0  0  0  0  0  0  0  0  0  0  0  0
   12.3675    0.6831    4.2577 H   0  0  0  0  0  0  0  0  0  0  0  0
    9.8455    1.7164    2.8880 H   0  0  0  0  0  0  0  0  0  0  0  0
   12.5243   -3.5042    2.2963 H   0  0  0  0  0  0  0  0  0  0  0  0
   13.4409   -3.2495    0.7726 H   0  0  0  0  0  0  0  0  0  0  0  0
   11.7997   -3.9779    0.7224 H   0  0  0  0  0  0  0  0  0  0  0  0
   14.5393    6.5037    5.9256 H   0  0  0  0  0  0  0  0  0  0  0  0
   13.0099    6.3040    5.0050 H   0  0  0  0  0  0  0  0  0  0  0  0
   14.2303    4.9860    5.0159 H   0  0  0  0  0  0  0  0  0  0  0  0
   12.0449    5.8561    8.5841 H   0  0  0  0  0  0  0  0  0  0  0  0
   11.7745    6.8504    7.1128 H   0  0  0  0  0  0  0  0  0  0  0  0
   13.3262    6.9759    8.0089 H   0  0  0  0  0  0  0  0  0  0  0  0
   11.6640    3.7412    7.4633 H   0  0  0  0  0  0  0  0  0  0  0  0
   11.1915    4.7094    6.0259 H   0  0  0  0  0  0  0  0  0  0  0  0
   12.9296    3.4754    4.7192 H   0  0  0  0  0  0  0  0  0  0  0  0
   13.8854    4.6667    7.4181 H   0  0  0  0  0  0  0  0  0  0  0  0
   10.9494    0.4101   -1.1681 H   0  0  0  0  0  0  0  0  0  0  0  0
   10.6024    2.9701    4.7555 H   0  0  0  0  0  0  0  0  0  0  0  0
  1  5  1  0  0  0  0
  1 39  1  0  0  0  0
  2  7  1  0  0  0  0
  2 40  1  0  0  0  0
  3  2  2  0  0  0  0
  3 41  1  0  0  0  0
  4  1  2  0  0  0  0
  4 42  1  0  0  0  0
  5 43  1  0  0  0  0
  6 12  1  0  0  0  0
  6 44  1  0  0  0  0
  7 17  1  0  0  0  0
  8  3  1  0  0  0  0
  8 11  2  0  0  0  0
  9  4  1  0  0  0  0
  9  6  2  0  0  0  0
 10  7  2  0  0  0  0
 10 36  1  0  0  0  0
 11 10  1  0  0  0  0
 11 37  1  0  0  0  0
 12  5  2  0  0  0  0
 12 38  1  0  0  0  0
 13 14  2  0  0  0  0
 13 45  1  0  0  0  0
 14 15  1  0  0  0  0
 14 23  1  0  0  0  0
 15 32  2  0  0  0  0
 16 29  1  0  0  0  0
 16 33  2  0  0  0  0
 17 34  1  0  0  0  0
 17 35  2  0  0  0  0
 18 19  1  0  0  0  0
 18 46  1  0  0  0  0
 18 47  1  0  0  0  0
 19 48  1  0  0  0  0
 19 49  1  0  0  0  0
 20 18  1  0  0  0  0
 20 50  1  0  0  0  0
 20 51  1  0  0  0  0
 21 22  1  0  0  0  0
 21 52  1  0  0  0  0
 21 53  1  0  0  0  0
 22 19  1  0  0  0  0
 22 30  1  0  0  0  0
 22 54  1  6  0  0  0
 23 55  1  0  0  0  0
 23 56  1  0  0  0  0
 23 57  1  0  0  0  0
 24 58  1  0  0  0  0
 24 59  1  0  0  0  0
 24 60  1  0  0  0  0
 25 61  1  0  0  0  0
 25 62  1  0  0  0  0
 25 63  1  0  0  0  0
 26 28  1  0  0  0  0
 26 64  1  0  0  0  0
 26 65  1  0  0  0  0
 27  8  1  0  0  0  0
 27 26  1  0  0  0  0
 27 31  1  0  0  0  0
 27 66  1  6  0  0  0
 28 24  1  0  0  0  0
 28 25  1  0  0  0  0
 28 67  1  0  0  0  0
 29 15  1  0  0  0  0
 29 68  1  0  0  0  0
 30 13  1  0  0  0  0
 30 16  1  0  0  0  0
 31 20  1  0  0  0  0
 31 21  1  0  0  0  0
 31 69  1  6  0  0  0
 36  9  1  0  0  0  0
M  CHG  2  31   1  34  -1
M  END
