4qhp_ligand
 OpenBabel08222323353D

 54 55  0  0  1  0  0  0  0  0999 V2000
    9.5130   44.0830   -4.2180 P   0  0  2  0  0  0  0  0  0  0  0  0
   12.0150   43.7110   -3.1070 C   0  0  0  0  0  0  0  0  0  0  0  0
   11.2550   44.4260   -4.2150 C   0  0  2  0  0  0  0  0  0  0  0  0
   13.5400   43.9440   -3.1020 C   0  0  0  0  0  0  0  0  0  0  0  0
   14.4690   42.7690   -3.0460 C   0  0  0  0  0  0  0  0  0  0  0  0
   11.4100   45.9550   -4.1390 N   0  3  0  0  0  0  0  0  0  0  0  0
    9.2580   42.3180   -4.3730 C   0  0  0  0  0  0  0  0  0  0  0  0
    8.9030   44.9290   -5.3160 O   0  0  0  0  0  1  0  0  0  0  0  0
    8.0320   41.7310   -3.6440 C   0  0  2  0  0  0  0  0  0  0  0  0
    8.9630   44.5330   -2.9180 O   0  0  0  0  0  0  0  0  0  0  0  0
    8.1520   40.1680   -3.4450 C   0  0  0  0  0  0  0  0  0  0  0  0
    6.7910   41.9440   -4.4280 C   0  0  0  0  0  0  0  0  0  0  0  0
   14.4610   41.7510   -4.0150 C   0  0  0  0  0  0  0  0  0  0  0  0
    5.4630   41.8740   -3.7260 C   0  0  0  0  0  0  0  0  0  0  0  0
   15.3670   40.6450   -3.9890 C   0  0  0  0  0  0  0  0  0  0  0  0
   16.3080   40.5580   -2.9620 C   0  0  0  0  0  0  0  0  0  0  0  0
   16.3440   41.5690   -1.9860 C   0  0  0  0  0  0  0  0  0  0  0  0
   15.4340   42.6530   -2.0290 C   0  0  0  0  0  0  0  0  0  0  0  0
    1.5570   41.7570   -1.6650 C   0  0  0  0  0  0  0  0  0  0  0  0
    7.1790   39.4310   -3.7550 O   0  5  0  0  0  0  0  0  0  0  0  0
    9.2560   39.7870   -2.9990 O   0  0  0  0  0  0  0  0  0  0  0  0
    0.3780   41.6370   -2.4970 N   0  3  0  0  0  0  0  0  0  0  0  0
    5.3400   42.0040   -2.3370 C   0  0  0  0  0  0  0  0  0  0  0  0
    4.0880   41.9650   -1.7080 C   0  0  0  0  0  0  0  0  0  0  0  0
    2.8940   41.7920   -2.4350 C   0  0  0  0  0  0  0  0  0  0  0  0
    3.0220   41.6630   -3.8090 C   0  0  0  0  0  0  0  0  0  0  0  0
    4.2740   41.7040   -4.4240 C   0  0  0  0  0  0  0  0  0  0  0  0
   11.8360   42.6309   -3.2134 H   0  0  0  0  0  0  0  0  0  0  0  0
   11.6147   44.0558   -2.1422 H   0  0  0  0  0  0  0  0  0  0  0  0
   11.6749   44.0806   -5.1712 H   0  0  0  0  0  0  0  0  0  0  0  0
   13.7645   44.5705   -2.2262 H   0  0  0  0  0  0  0  0  0  0  0  0
   13.7814   44.4983   -4.0209 H   0  0  0  0  0  0  0  0  0  0  0  0
   12.3893   46.1936   -4.1350 H   0  0  0  0  0  0  0  0  0  0  0  0
   10.9779   46.2950   -3.2942 H   0  0  0  0  0  0  0  0  0  0  0  0
   10.9644   46.3781   -4.9381 H   0  0  0  0  0  0  0  0  0  0  0  0
   10.1533   41.8154   -3.9782 H   0  0  0  0  0  0  0  0  0  0  0  0
    9.1510   42.0889   -5.4435 H   0  0  0  0  0  0  0  0  0  0  0  0
    7.9409   42.2212   -2.6635 H   0  0  0  0  0  0  0  0  0  0  0  0
    6.7764   41.1823   -5.2214 H   0  0  0  0  0  0  0  0  0  0  0  0
    6.8636   42.9438   -4.8808 H   0  0  0  0  0  0  0  0  0  0  0  0
   13.7353   41.8068   -4.8183 H   0  0  0  0  0  0  0  0  0  0  0  0
   15.3234   39.8826   -4.7584 H   0  0  0  0  0  0  0  0  0  0  0  0
   16.9997   39.7246   -2.9177 H   0  0  0  0  0  0  0  0  0  0  0  0
   17.0781   41.5181   -1.1900 H   0  0  0  0  0  0  0  0  0  0  0  0
   15.4822   43.4135   -1.2580 H   0  0  0  0  0  0  0  0  0  0  0  0
    1.5801   40.8975   -0.9789 H   0  0  0  0  0  0  0  0  0  0  0  0
    1.4725   42.6875   -1.0845 H   0  0  0  0  0  0  0  0  0  0  0  0
   -0.4443   41.6219   -1.9142 H   0  0  0  0  0  0  0  0  0  0  0  0
    0.4281   40.7826   -3.0296 H   0  0  0  0  0  0  0  0  0  0  0  0
    0.3294   42.4229   -3.1263 H   0  0  0  0  0  0  0  0  0  0  0  0
    6.2319   42.1376   -1.7356 H   0  0  0  0  0  0  0  0  0  0  0  0
    4.0371   42.0711   -0.6304 H   0  0  0  0  0  0  0  0  0  0  0  0
    2.1343   41.5279   -4.4163 H   0  0  0  0  0  0  0  0  0  0  0  0
    4.3212   41.5977   -5.5018 H   0  0  0  0  0  0  0  0  0  0  0  0
  1  3  1  0  0  0  0
  1  8  1  6  0  0  0
  1 10  2  0  0  0  0
  2  4  1  0  0  0  0
  2 28  1  0  0  0  0
  2 29  1  0  0  0  0
  3  2  1  0  0  0  0
  3  6  1  0  0  0  0
  3 30  1  6  0  0  0
  4  5  1  0  0  0  0
  4 31  1  0  0  0  0
  4 32  1  0  0  0  0
  5 13  2  0  0  0  0
  5 18  1  0  0  0  0
  6 33  1  0  0  0  0
  6 34  1  0  0  0  0
  6 35  1  0  0  0  0
  7  1  1  0  0  0  0
  7 36  1  0  0  0  0
  7 37  1  0  0  0  0
  9  7  1  0  0  0  0
  9 11  1  0  0  0  0
  9 38  1  1  0  0  0
 11 20  1  0  0  0  0
 11 21  2  0  0  0  0
 12  9  1  0  0  0  0
 12 39  1  0  0  0  0
 12 40  1  0  0  0  0
 13 15  1  0  0  0  0
 13 41  1  0  0  0  0
 14 12  1  0  0  0  0
 14 27  1  0  0  0  0
 15 16  2  0  0  0  0
 15 42  1  0  0  0  0
 16 43  1  0  0  0  0
 17 16  1  0  0  0  0
 17 44  1  0  0  0  0
 18 17  2  0  0  0  0
 18 45  1  0  0  0  0
 19 22  1  0  0  0  0
 19 46  1  0  0  0  0
 19 47  1  0  0  0  0
 22 48  1  0  0  0  0
 22 49  1  0  0  0  0
 22 50  1  0  0  0  0
 23 14  2  0  0  0  0
 23 51  1  0  0  0  0
 24 23  1  0  0  0  0
 24 25  2  0  0  0  0
 24 52  1  0  0  0  0
 25 19  1  0  0  0  0
 25 26  1  0  0  0  0
 26 27  2  0  0  0  0
 26 53  1  0  0  0  0
 27 54  1  0  0  0  0
M  CHG  3   6   1  20  -1  22   1
M  END
