4qjp_ligand
 OpenBabel08222323353D

 51 53  0  0  0  0  0  0  0  0999 V2000
  -37.1300  -36.2160   25.5330 F   0  0  0  0  0  0  0  0  0  0  0  0
  -36.9380  -35.9950   24.2160 C   0  0  0  0  0  0  0  0  0  0  0  0
  -35.7800  -36.2860   23.5390 C   0  0  0  0  0  0  0  0  0  0  0  0
  -34.3230  -36.9340   24.3530 S   0  0  0  0  0  0  0  0  0  0  0  0
  -33.4260  -35.8780   24.4870 O   0  0  0  0  0  0  0  0  0  0  0  0
  -34.6480  -37.4560   26.0020 N   0  0  0  0  0  0  0  0  0  0  0  0
  -34.0660  -38.0650   23.6060 O   0  0  0  0  0  0  0  0  0  0  0  0
  -35.7210  -36.0090   22.1860 C   0  0  0  0  0  0  0  0  0  0  0  0
  -34.5720  -36.3040   21.5080 F   0  0  0  0  0  0  0  0  0  0  0  0
  -36.8090  -35.5020   21.5440 C   0  0  0  0  0  0  0  0  0  0  0  0
  -36.6990  -35.2180   20.2000 F   0  0  0  0  0  0  0  0  0  0  0  0
  -38.0400  -35.3960   23.5710 C   0  0  0  0  0  0  0  0  0  0  0  0
  -37.9530  -35.2190   22.1810 C   0  0  0  0  0  0  0  0  0  0  0  0
  -39.4320  -34.6270   21.2870 S   0  0  0  0  0  0  0  0  0  0  0  0
  -38.9540  -33.8270   20.0780 O   0  0  0  0  0  0  0  0  0  0  0  0
  -40.2270  -33.6510   22.1550 O   0  0  0  0  0  0  0  0  0  0  0  0
  -40.6720  -35.9450   21.1460 C   0  0  0  0  0  0  0  0  0  0  0  0
  -40.0120  -37.2290   20.6880 C   0  0  0  0  0  0  0  0  0  0  0  0
  -40.5520  -37.6010   19.3290 C   0  0  0  0  0  0  0  0  0  0  0  0
  -39.7060  -37.5320   18.1910 C   0  0  0  0  0  0  0  0  0  0  0  0
  -40.1430  -37.8940   16.8880 C   0  0  0  0  0  0  0  0  0  0  0  0
  -41.8810  -38.0460   19.1720 C   0  0  0  0  0  0  0  0  0  0  0  0
  -42.3380  -38.4140   17.8760 C   0  0  0  0  0  0  0  0  0  0  0  0
  -41.4790  -38.3390   16.7360 C   0  0  0  0  0  0  0  0  0  0  0  0
  -39.2460  -35.1760   24.2770 N   0  0  0  0  0  0  0  0  0  0  0  0
  -40.1210  -34.0880   24.7180 C   0  0  0  0  0  0  0  0  0  0  0  0
  -41.6080  -34.4080   24.4640 C   0  0  0  0  0  0  0  0  0  0  0  0
  -42.1800  -35.6610   24.8630 C   0  0  0  0  0  0  0  0  0  0  0  0
  -43.5510  -35.8740   24.5370 C   0  0  0  0  0  0  0  0  0  0  0  0
  -44.3620  -34.8910   23.8730 C   0  0  0  0  0  0  0  0  0  0  0  0
  -43.7730  -33.6660   23.4780 C   0  0  0  0  0  0  0  0  0  0  0  0
  -42.4130  -33.4470   23.7990 C   0  0  0  0  0  0  0  0  0  0  0  0
  -33.9110  -37.8371   26.5602 H   0  0  0  0  0  0  0  0  0  0  0  0
  -35.5696  -37.3715   26.3807 H   0  0  0  0  0  0  0  0  0  0  0  0
  -41.4380  -35.6480   20.4146 H   0  0  0  0  0  0  0  0  0  0  0  0
  -41.1442  -36.1075   22.1261 H   0  0  0  0  0  0  0  0  0  0  0  0
  -40.2325  -38.0333   21.4053 H   0  0  0  0  0  0  0  0  0  0  0  0
  -38.9237  -37.0822   20.6248 H   0  0  0  0  0  0  0  0  0  0  0  0
  -38.6858  -37.1895   18.3211 H   0  0  0  0  0  0  0  0  0  0  0  0
  -39.4746  -37.8315   16.0369 H   0  0  0  0  0  0  0  0  0  0  0  0
  -42.5449  -38.1068   20.0267 H   0  0  0  0  0  0  0  0  0  0  0  0
  -43.3582  -38.7582   17.7505 H   0  0  0  0  0  0  0  0  0  0  0  0
  -41.8492  -38.6221   15.7573 H   0  0  0  0  0  0  0  0  0  0  0  0
  -39.6377  -36.0788   24.5810 H   0  0  0  0  0  0  0  0  0  0  0  0
  -39.8552  -33.1728   24.1687 H   0  0  0  0  0  0  0  0  0  0  0  0
  -39.9712  -33.9255   25.7955 H   0  0  0  0  0  0  0  0  0  0  0  0
  -41.5977  -36.4101   25.3873 H   0  0  0  0  0  0  0  0  0  0  0  0
  -44.0035  -36.8226   24.8026 H   0  0  0  0  0  0  0  0  0  0  0  0
  -45.4104  -35.0849   23.6773 H   0  0  0  0  0  0  0  0  0  0  0  0
  -44.3477  -32.9173   22.9449 H   0  0  0  0  0  0  0  0  0  0  0  0
  -41.9640  -32.4995   23.5238 H   0  0  0  0  0  0  0  0  0  0  0  0
  1  2  1  0  0  0  0
  2  3  2  0  0  0  0
  2 12  1  0  0  0  0
  3  4  1  0  0  0  0
  3  8  1  0  0  0  0
  4  5  2  0  0  0  0
  4  6  1  0  0  0  0
  4  7  2  0  0  0  0
  6 33  1  0  0  0  0
  6 34  1  0  0  0  0
  8  9  1  0  0  0  0
  8 10  2  0  0  0  0
 10 11  1  0  0  0  0
 10 13  1  0  0  0  0
 12 13  2  0  0  0  0
 12 25  1  0  0  0  0
 13 14  1  0  0  0  0
 14 15  2  0  0  0  0
 14 16  2  0  0  0  0
 14 17  1  0  0  0  0
 17 18  1  0  0  0  0
 17 35  1  0  0  0  0
 17 36  1  0  0  0  0
 18 19  1  0  0  0  0
 18 37  1  0  0  0  0
 18 38  1  0  0  0  0
 19 20  2  0  0  0  0
 19 22  1  0  0  0  0
 20 21  1  0  0  0  0
 20 39  1  0  0  0  0
 21 24  2  0  0  0  0
 21 40  1  0  0  0  0
 22 23  2  0  0  0  0
 22 41  1  0  0  0  0
 23 24  1  0  0  0  0
 23 42  1  0  0  0  0
 24 43  1  0  0  0  0
 25 26  1  0  0  0  0
 25 44  1  0  0  0  0
 26 27  1  0  0  0  0
 26 45  1  0  0  0  0
 26 46  1  0  0  0  0
 27 28  2  0  0  0  0
 27 32  1  0  0  0  0
 28 29  1  0  0  0  0
 28 47  1  0  0  0  0
 29 30  2  0  0  0  0
 29 48  1  0  0  0  0
 30 31  1  0  0  0  0
 30 49  1  0  0  0  0
 31 32  2  0  0  0  0
 31 50  1  0  0  0  0
 32 51  1  0  0  0  0
M  END
