4qls_ligand
 OpenBabel08222323353D

 93 95  0  0  1  0  0  0  0  0999 V2000
    7.7580 -136.0950   19.5040 C   0  0  0  0  0  0  0  0  0  0  0  0
    7.2800 -136.9750   18.7910 O   0  0  0  0  0  0  0  0  0  0  0  0
    6.9900 -134.8510   19.9560 C   0  0  0  0  0  0  0  0  0  0  0  0
    5.6430 -134.7360   19.4340 N   0  3  0  0  0  0  0  0  0  0  0  0
    3.2230 -134.6790   18.2430 O   0  0  0  0  0  0  0  0  0  0  0  0
    5.5630 -134.3850   18.0110 C   0  0  0  0  0  0  0  0  0  0  0  0
    4.6750 -135.7910   19.7980 C   0  0  0  0  0  0  0  0  0  0  0  0
    4.2420 -133.7260   17.7820 C   0  0  0  0  0  0  0  0  0  0  0  0
    3.3630 -135.1030   19.6370 C   0  0  0  0  0  0  0  0  0  0  0  0
    9.0010 -136.0990   20.0120 N   0  0  0  0  0  0  0  0  0  0  0  0
    9.9800 -137.1560   19.7720 C   0  0  2  0  0  0  0  0  0  0  0  0
   10.8560 -137.2810   21.0230 C   0  0  0  0  0  0  0  0  0  0  0  0
   10.8710 -136.7640   18.5970 C   0  0  0  0  0  0  0  0  0  0  0  0
   11.4300 -135.6680   18.5870 O   0  0  0  0  0  0  0  0  0  0  0  0
   11.0210 -137.6980   17.6470 N   0  0  0  0  0  0  0  0  0  0  0  0
   11.8900 -137.4750   16.4790 C   0  0  1  0  0  0  0  0  0  0  0  0
   12.9500 -138.5640   16.4130 C   0  0  0  0  0  0  0  0  0  0  0  0
   13.8800 -138.3260   17.4530 C   0  0  0  0  0  0  0  0  0  0  0  0
   15.1320 -137.7620   17.1870 C   0  0  0  0  0  0  0  0  0  0  0  0
   16.0450 -137.5360   18.2180 C   0  0  0  0  0  0  0  0  0  0  0  0
   15.7310 -137.8790   19.5350 C   0  0  0  0  0  0  0  0  0  0  0  0
   16.6570 -137.6300   20.5200 O   0  0  0  0  0  0  0  0  0  0  0  0
   16.7870 -138.5560   21.6210 C   0  0  0  0  0  0  0  0  0  0  0  0
   14.4790 -138.4390   19.8040 C   0  0  0  0  0  0  0  0  0  0  0  0
   13.5720 -138.6680   18.7720 C   0  0  0  0  0  0  0  0  0  0  0  0
   11.0260 -137.4970   15.2100 C   0  0  0  0  0  0  0  0  0  0  0  0
    9.8830 -137.9470   15.2400 O   0  0  0  0  0  0  0  0  0  0  0  0
   11.6110 -136.9780   14.1170 N   0  0  0  0  0  0  0  0  0  0  0  0
   10.9260 -136.9050   12.8190 C   0  0  1  0  0  0  0  0  0  0  0  0
   10.8740 -135.4700   12.3180 C   0  0  0  0  0  0  0  0  0  0  0  0
   10.0620 -134.5070   13.2210 C   0  0  0  0  0  0  0  0  0  0  0  0
    9.9500 -133.2560   12.4220 C   0  0  0  0  0  0  0  0  0  0  0  0
    9.3590 -132.1810   13.3160 C   0  0  0  0  0  0  0  0  0  0  0  0
    7.9350 -132.5290   13.6810 C   0  0  0  0  0  0  0  0  0  0  0  0
    7.8690 -133.9150   14.3370 C   0  0  0  0  0  0  0  0  0  0  0  0
    8.6360 -134.9850   13.5270 C   0  0  0  0  0  0  0  0  0  0  0  0
   11.7000 -137.6960   11.7300 C   0  0  1  0  0  0  0  0  0  0  0  0
   13.0900 -137.3260   11.8020 O   0  0  0  0  0  0  0  0  0  0  0  0
   11.5630 -139.2930   11.7480 C   0  0  2  0  0  0  0  0  0  0  0  0
   10.1340 -139.7050   12.1990 C   0  0  0  0  0  0  0  0  0  0  0  0
   12.4730 -139.7880   12.8960 C   0  0  0  0  0  0  0  0  0  0  0  0
   13.5330 -140.5300   12.2770 O   0  0  0  0  0  0  0  0  0  0  0  0
    7.5568 -133.9650   19.6340 H   0  0  0  0  0  0  0  0  0  0  0  0
    6.9294 -134.8684   21.0542 H   0  0  0  0  0  0  0  0  0  0  0  0
    5.2878 -133.9196   19.9065 H   0  0  0  0  0  0  0  0  0  0  0  0
    5.6406 -135.2934   17.3956 H   0  0  0  0  0  0  0  0  0  0  0  0
    6.3775 -133.6937   17.7488 H   0  0  0  0  0  0  0  0  0  0  0  0
    4.8232 -136.1241   20.8358 H   0  0  0  0  0  0  0  0  0  0  0  0
    4.7558 -136.6540   19.1208 H   0  0  0  0  0  0  0  0  0  0  0  0
    4.1776 -132.7908   18.3575 H   0  0  0  0  0  0  0  0  0  0  0  0
    4.1047 -133.5086   16.7125 H   0  0  0  0  0  0  0  0  0  0  0  0
    2.5481 -135.7946   19.8971 H   0  0  0  0  0  0  0  0  0  0  0  0
    3.3227 -134.2240   20.2970 H   0  0  0  0  0  0  0  0  0  0  0  0
    9.2734 -135.3303   20.5907 H   0  0  0  0  0  0  0  0  0  0  0  0
    9.4704 -138.1079   19.5616 H   0  0  0  0  0  0  0  0  0  0  0  0
   11.6043 -138.0724   20.8690 H   0  0  0  0  0  0  0  0  0  0  0  0
   10.2259 -137.5355   21.8880 H   0  0  0  0  0  0  0  0  0  0  0  0
   11.3667 -136.3249   21.2100 H   0  0  0  0  0  0  0  0  0  0  0  0
   10.5317 -138.5658   17.7334 H   0  0  0  0  0  0  0  0  0  0  0  0
   12.3824 -136.4955   16.5689 H   0  0  0  0  0  0  0  0  0  0  0  0
   13.4608 -138.5305   15.4394 H   0  0  0  0  0  0  0  0  0  0  0  0
   12.4821 -139.5503   16.5479 H   0  0  0  0  0  0  0  0  0  0  0  0
   15.3959 -137.4977   16.1694 H   0  0  0  0  0  0  0  0  0  0  0  0
   17.0073 -137.0899   17.9945 H   0  0  0  0  0  0  0  0  0  0  0  0
   17.5692 -138.2011   22.3082 H   0  0  0  0  0  0  0  0  0  0  0  0
   17.0612 -139.5488   21.2348 H   0  0  0  0  0  0  0  0  0  0  0  0
   15.8297 -138.6233   22.1586 H   0  0  0  0  0  0  0  0  0  0  0  0
   14.2121 -138.6968   20.8225 H   0  0  0  0  0  0  0  0  0  0  0  0
   12.6119 -139.1187   18.9959 H   0  0  0  0  0  0  0  0  0  0  0  0
   12.5454 -136.6292   14.1896 H   0  0  0  0  0  0  0  0  0  0  0  0
    9.9078 -137.3071   12.9267 H   0  0  0  0  0  0  0  0  0  0  0  0
   10.4171 -135.4710   11.3174 H   0  0  0  0  0  0  0  0  0  0  0  0
   11.9046 -135.0914   12.2502 H   0  0  0  0  0  0  0  0  0  0  0  0
   10.5997 -134.3335   14.1648 H   0  0  0  0  0  0  0  0  0  0  0  0
    9.2934 -133.4237   11.5556 H   0  0  0  0  0  0  0  0  0  0  0  0
   10.9458 -132.9454   12.0728 H   0  0  0  0  0  0  0  0  0  0  0  0
    9.3725 -131.2183   12.7840 H   0  0  0  0  0  0  0  0  0  0  0  0
    9.9599 -132.1012   14.2339 H   0  0  0  0  0  0  0  0  0  0  0  0
    7.3183 -132.5304   12.7701 H   0  0  0  0  0  0  0  0  0  0  0  0
    7.5481 -131.7772   14.3846 H   0  0  0  0  0  0  0  0  0  0  0  0
    6.8149 -134.2193   14.4156 H   0  0  0  0  0  0  0  0  0  0  0  0
    8.3082 -133.8512   15.3435 H   0  0  0  0  0  0  0  0  0  0  0  0
    8.6836 -135.9159   14.1110 H   0  0  0  0  0  0  0  0  0  0  0  0
    8.1061 -135.1720   12.5814 H   0  0  0  0  0  0  0  0  0  0  0  0
   11.3066 -137.3619   10.7586 H   0  0  0  0  0  0  0  0  0  0  0  0
   13.1763 -136.3923   11.6496 H   0  0  0  0  0  0  0  0  0  0  0  0
   11.8287 -139.7313   10.7747 H   0  0  0  0  0  0  0  0  0  0  0  0
   10.0540 -140.8021   12.2068 H   0  0  0  0  0  0  0  0  0  0  0  0
    9.3943 -139.2885   11.4994 H   0  0  0  0  0  0  0  0  0  0  0  0
    9.9422 -139.3162   13.2099 H   0  0  0  0  0  0  0  0  0  0  0  0
   11.9048 -140.4346   13.5808 H   0  0  0  0  0  0  0  0  0  0  0  0
   12.8820 -138.9327   13.4539 H   0  0  0  0  0  0  0  0  0  0  0  0
   14.1223 -140.8568   12.9466 H   0  0  0  0  0  0  0  0  0  0  0  0
  1  2  2  0  0  0  0
  1 10  1  0  0  0  0
  3  1  1  0  0  0  0
  3 43  1  0  0  0  0
  3 44  1  0  0  0  0
  4  3  1  0  0  0  0
  4  7  1  0  0  0  0
  4 45  1  0  0  0  0
  5  9  1  0  0  0  0
  6  4  1  0  0  0  0
  6  8  1  0  0  0  0
  6 46  1  0  0  0  0
  6 47  1  0  0  0  0
  7  9  1  0  0  0  0
  7 48  1  0  0  0  0
  7 49  1  0  0  0  0
  8  5  1  0  0  0  0
  8 50  1  0  0  0  0
  8 51  1  0  0  0  0
  9 52  1  0  0  0  0
  9 53  1  0  0  0  0
 10 11  1  0  0  0  0
 10 54  1  0  0  0  0
 11 12  1  0  0  0  0
 11 13  1  0  0  0  0
 11 55  1  6  0  0  0
 12 56  1  0  0  0  0
 12 57  1  0  0  0  0
 12 58  1  0  0  0  0
 13 14  2  0  0  0  0
 13 15  1  0  0  0  0
 15 16  1  0  0  0  0
 15 59  1  0  0  0  0
 16 17  1  0  0  0  0
 16 26  1  0  0  0  0
 16 60  1  1  0  0  0
 17 18  1  0  0  0  0
 17 61  1  0  0  0  0
 17 62  1  0  0  0  0
 18 19  2  0  0  0  0
 18 25  1  0  0  0  0
 19 20  1  0  0  0  0
 19 63  1  0  0  0  0
 20 21  2  0  0  0  0
 20 64  1  0  0  0  0
 21 22  1  0  0  0  0
 21 24  1  0  0  0  0
 22 23  1  0  0  0  0
 23 65  1  0  0  0  0
 23 66  1  0  0  0  0
 23 67  1  0  0  0  0
 24 25  2  0  0  0  0
 24 68  1  0  0  0  0
 25 69  1  0  0  0  0
 26 27  2  0  0  0  0
 26 28  1  0  0  0  0
 28 29  1  0  0  0  0
 28 70  1  0  0  0  0
 29 30  1  0  0  0  0
 29 37  1  0  0  0  0
 29 71  1  1  0  0  0
 30 31  1  0  0  0  0
 30 72  1  0  0  0  0
 30 73  1  0  0  0  0
 31 32  1  0  0  0  0
 31 36  1  0  0  0  0
 31 74  1  0  0  0  0
 32 33  1  0  0  0  0
 32 75  1  0  0  0  0
 32 76  1  0  0  0  0
 33 34  1  0  0  0  0
 33 77  1  0  0  0  0
 33 78  1  0  0  0  0
 34 35  1  0  0  0  0
 34 79  1  0  0  0  0
 34 80  1  0  0  0  0
 35 36  1  0  0  0  0
 35 81  1  0  0  0  0
 35 82  1  0  0  0  0
 36 83  1  0  0  0  0
 36 84  1  0  0  0  0
 37 38  1  0  0  0  0
 37 39  1  0  0  0  0
 37 85  1  6  0  0  0
 38 86  1  0  0  0  0
 39 40  1  0  0  0  0
 39 41  1  0  0  0  0
 39 87  1  6  0  0  0
 40 88  1  0  0  0  0
 40 89  1  0  0  0  0
 40 90  1  0  0  0  0
 41 42  1  0  0  0  0
 41 91  1  0  0  0  0
 41 92  1  0  0  0  0
 42 93  1  0  0  0  0
M  CHG  1   4   1
M  END
