4qlu_ligand
 OpenBabel08222323353D

 94 98  0  0  1  0  0  0  0  0999 V2000
   11.4050 -139.2310   23.7430 C   0  0  0  0  0  0  0  0  0  0  0  0
   11.4510 -137.7240   23.8770 C   0  0  0  0  0  0  0  0  0  0  0  0
   11.9110 -137.0900   24.9470 C   0  0  0  0  0  0  0  0  0  0  0  0
   12.3340 -137.5080   26.1250 C   0  0  0  0  0  0  0  0  0  0  0  0
   12.7670 -136.6650   27.1080 C   0  0  0  0  0  0  0  0  0  0  0  0
   12.7400 -135.3330   26.8470 C   0  0  0  0  0  0  0  0  0  0  0  0
   12.2600 -134.9480   25.6270 C   0  0  0  0  0  0  0  0  0  0  0  0
   11.8570 -135.8080   24.7090 C   0  0  0  0  0  0  0  0  0  0  0  0
   11.3460 -135.6220   23.4410 C   0  0  0  0  0  0  0  0  0  0  0  0
   11.0910 -136.8650   22.9550 C   0  0  0  0  0  0  0  0  0  0  0  0
   10.5680 -137.1450   21.7650 C   0  0  0  0  0  0  0  0  0  0  0  0
   10.4520 -138.2850   21.3980 O   0  0  0  0  0  0  0  0  0  0  0  0
   10.2340 -136.1310   21.0030 N   0  0  0  0  0  0  0  0  0  0  0  0
    9.6000 -136.2260   19.6990 C   0  0  2  0  0  0  0  0  0  0  0  0
    8.6180 -137.3740   19.6380 C   0  0  0  0  0  0  0  0  0  0  0  0
   10.6170 -136.2720   18.6450 C   0  0  0  0  0  0  0  0  0  0  0  0
   11.4930 -135.4510   18.7000 O   0  0  0  0  0  0  0  0  0  0  0  0
   10.4760 -137.1400   17.6620 N   0  0  0  0  0  0  0  0  0  0  0  0
   11.4500 -137.2150   16.5920 C   0  0  2  0  0  0  0  0  0  0  0  0
   10.6680 -137.3030   15.3040 C   0  0  0  0  0  0  0  0  0  0  0  0
    9.5200 -137.6490   15.3340 O   0  0  0  0  0  0  0  0  0  0  0  0
   12.4910 -138.3290   16.9070 C   0  0  0  0  0  0  0  0  0  0  0  0
   13.8660 -137.7180   17.2750 C   0  0  0  0  0  0  0  0  0  0  0  0
   14.1510 -136.4740   17.0960 C   0  0  0  0  0  0  0  0  0  0  0  0
   14.9280 -138.2670   17.8040 C   0  0  0  0  0  0  0  0  0  0  0  0
   15.3600 -136.2620   17.4890 N   0  0  0  0  0  0  0  0  0  0  0  0
   15.8530 -137.3510   17.9150 C   0  0  0  0  0  0  0  0  0  0  0  0
   15.2180 -139.4900   18.2000 C   0  0  0  0  0  0  0  0  0  0  0  0
   17.0540 -137.5510   18.3990 C   0  0  0  0  0  0  0  0  0  0  0  0
   16.4750 -139.7880   18.7190 C   0  0  0  0  0  0  0  0  0  0  0  0
   17.4250 -138.7940   18.8270 C   0  0  0  0  0  0  0  0  0  0  0  0
   11.2570 -136.8930   14.2050 N   0  0  0  0  0  0  0  0  0  0  0  0
   10.5930 -136.7620   12.9130 C   0  0  1  0  0  0  0  0  0  0  0  0
   10.6630 -135.2430   12.7260 C   0  0  0  0  0  0  0  0  0  0  0  0
    9.3980 -134.4010   12.7360 C   0  0  0  0  0  0  0  0  0  0  0  0
    9.8820 -132.9690   12.6950 C   0  0  0  0  0  0  0  0  0  0  0  0
    9.1260 -131.9260   13.4340 C   0  0  0  0  0  0  0  0  0  0  0  0
    7.7390 -132.2870   13.6630 C   0  0  0  0  0  0  0  0  0  0  0  0
    7.7150 -133.5180   14.4710 C   0  0  0  0  0  0  0  0  0  0  0  0
    8.5530 -134.6750   13.9360 C   0  0  0  0  0  0  0  0  0  0  0  0
   11.3460 -137.4670   11.7470 C   0  0  1  0  0  0  0  0  0  0  0  0
   12.6630 -137.3630   12.0180 O   0  0  0  0  0  0  0  0  0  0  0  0
   11.0510 -138.9960   11.5500 C   0  0  2  0  0  0  0  0  0  0  0  0
    9.5790 -139.2790   11.6710 C   0  0  0  0  0  0  0  0  0  0  0  0
   11.6630 -139.7860   12.6760 C   0  0  0  0  0  0  0  0  0  0  0  0
   12.8910 -139.2350   13.0610 O   0  0  0  0  0  0  0  0  0  0  0  0
   11.7667 -139.6930   24.6734 H   0  0  0  0  0  0  0  0  0  0  0  0
   12.0451 -139.5443   22.9051 H   0  0  0  0  0  0  0  0  0  0  0  0
   10.3698 -139.5508   23.5532 H   0  0  0  0  0  0  0  0  0  0  0  0
   12.3379 -138.5739   26.3222 H   0  0  0  0  0  0  0  0  0  0  0  0
   13.1189 -137.0448   28.0604 H   0  0  0  0  0  0  0  0  0  0  0  0
   13.0841 -134.6068   27.5745 H   0  0  0  0  0  0  0  0  0  0  0  0
   12.2076 -133.8888   25.4023 H   0  0  0  0  0  0  0  0  0  0  0  0
   12.0800 -135.1059   22.8048 H   0  0  0  0  0  0  0  0  0  0  0  0
   10.4192 -135.0311   23.4851 H   0  0  0  0  0  0  0  0  0  0  0  0
   10.4327 -135.2141   21.3491 H   0  0  0  0  0  0  0  0  0  0  0  0
    9.0198 -135.3039   19.5473 H   0  0  0  0  0  0  0  0  0  0  0  0
    8.1606 -137.4125   18.6384 H   0  0  0  0  0  0  0  0  0  0  0  0
    7.8335 -137.2261   20.3947 H   0  0  0  0  0  0  0  0  0  0  0  0
    9.1454 -138.3187   19.8364 H   0  0  0  0  0  0  0  0  0  0  0  0
    9.6868 -137.7541   17.6551 H   0  0  0  0  0  0  0  0  0  0  0  0
   12.0111 -136.2694   16.5603 H   0  0  0  0  0  0  0  0  0  0  0  0
   12.6086 -138.9717   16.0221 H   0  0  0  0  0  0  0  0  0  0  0  0
   12.1277 -138.9318   17.7524 H   0  0  0  0  0  0  0  0  0  0  0  0
   13.4796 -135.7241   16.6804 H   0  0  0  0  0  0  0  0  0  0  0  0
   15.8474 -135.3550   17.4617 H   0  0  0  0  0  0  0  0  0  0  0  0
   14.4708 -140.2713   18.1209 H   0  0  0  0  0  0  0  0  0  0  0  0
   17.7558 -136.7271   18.4600 H   0  0  0  0  0  0  0  0  0  0  0  0
   16.7063 -140.7981   19.0372 H   0  0  0  0  0  0  0  0  0  0  0  0
   18.4124 -138.9886   19.2297 H   0  0  0  0  0  0  0  0  0  0  0  0
   12.2267 -136.6543   14.2571 H   0  0  0  0  0  0  0  0  0  0  0  0
    9.5569 -137.1288   12.9563 H   0  0  0  0  0  0  0  0  0  0  0  0
   11.1491 -135.0680   11.7549 H   0  0  0  0  0  0  0  0  0  0  0  0
   11.3041 -134.8564   13.5320 H   0  0  0  0  0  0  0  0  0  0  0  0
    8.8017 -134.6165   11.8371 H   0  0  0  0  0  0  0  0  0  0  0  0
    9.8980 -132.6655   11.6378 H   0  0  0  0  0  0  0  0  0  0  0  0
   10.9074 -132.9650   13.0932 H   0  0  0  0  0  0  0  0  0  0  0  0
    9.1539 -130.9935   12.8512 H   0  0  0  0  0  0  0  0  0  0  0  0
    9.6116 -131.7646   14.4077 H   0  0  0  0  0  0  0  0  0  0  0  0
    7.2355 -132.4625   12.7009 H   0  0  0  0  0  0  0  0  0  0  0  0
    7.2268 -131.4767   14.2025 H   0  0  0  0  0  0  0  0  0  0  0  0
    6.6712 -133.8588   14.5374 H   0  0  0  0  0  0  0  0  0  0  0  0
    8.0844 -133.2697   15.4769 H   0  0  0  0  0  0  0  0  0  0  0  0
    9.2221 -135.0023   14.7454 H   0  0  0  0  0  0  0  0  0  0  0  0
    7.8637 -135.4921   13.6770 H   0  0  0  0  0  0  0  0  0  0  0  0
   11.1044 -136.9428   10.8106 H   0  0  0  0  0  0  0  0  0  0  0  0
   12.8491 -137.7878   12.8472 H   0  0  0  0  0  0  0  0  0  0  0  0
   11.4376 -139.3276   10.5750 H   0  0  0  0  0  0  0  0  0  0  0  0
    9.3996 -140.3550   11.5292 H   0  0  0  0  0  0  0  0  0  0  0  0
    9.0322 -138.7119   10.9033 H   0  0  0  0  0  0  0  0  0  0  0  0
    9.2284 -138.9772   12.6690 H   0  0  0  0  0  0  0  0  0  0  0  0
   11.8213 -140.8228   12.3445 H   0  0  0  0  0  0  0  0  0  0  0  0
   10.9781 -139.7767   13.5367 H   0  0  0  0  0  0  0  0  0  0  0  0
   12.7583 -138.3402   13.3512 H   0  0  0  0  0  0  0  0  0  0  0  0
  1  2  1  0  0  0  0
  1 47  1  0  0  0  0
  1 48  1  0  0  0  0
  1 49  1  0  0  0  0
  2  3  1  0  0  0  0
  2 10  2  0  0  0  0
  3  4  2  0  0  0  0
  3  8  1  0  0  0  0
  4  5  1  0  0  0  0
  4 50  1  0  0  0  0
  5  6  2  0  0  0  0
  5 51  1  0  0  0  0
  6  7  1  0  0  0  0
  6 52  1  0  0  0  0
  7  8  2  0  0  0  0
  7 53  1  0  0  0  0
  8  9  1  0  0  0  0
  9 10  1  0  0  0  0
  9 54  1  0  0  0  0
  9 55  1  0  0  0  0
 10 11  1  0  0  0  0
 11 12  2  0  0  0  0
 11 13  1  0  0  0  0
 13 14  1  0  0  0  0
 13 56  1  0  0  0  0
 14 15  1  0  0  0  0
 14 16  1  0  0  0  0
 14 57  1  6  0  0  0
 15 58  1  0  0  0  0
 15 59  1  0  0  0  0
 15 60  1  0  0  0  0
 16 17  2  0  0  0  0
 16 18  1  0  0  0  0
 18 19  1  0  0  0  0
 18 61  1  0  0  0  0
 19 20  1  0  0  0  0
 19 22  1  0  0  0  0
 19 62  1  6  0  0  0
 20 21  2  0  0  0  0
 20 32  1  0  0  0  0
 22 23  1  0  0  0  0
 22 63  1  0  0  0  0
 22 64  1  0  0  0  0
 23 24  2  0  0  0  0
 23 25  1  0  0  0  0
 24 26  1  0  0  0  0
 24 65  1  0  0  0  0
 25 27  2  0  0  0  0
 25 28  1  0  0  0  0
 26 27  1  0  0  0  0
 26 66  1  0  0  0  0
 27 29  1  0  0  0  0
 28 30  2  0  0  0  0
 28 67  1  0  0  0  0
 29 31  2  0  0  0  0
 29 68  1  0  0  0  0
 30 31  1  0  0  0  0
 30 69  1  0  0  0  0
 31 70  1  0  0  0  0
 32 33  1  0  0  0  0
 32 71  1  0  0  0  0
 33 34  1  0  0  0  0
 33 41  1  0  0  0  0
 33 72  1  1  0  0  0
 34 35  1  0  0  0  0
 34 73  1  0  0  0  0
 34 74  1  0  0  0  0
 35 36  1  0  0  0  0
 35 40  1  0  0  0  0
 35 75  1  0  0  0  0
 36 37  1  0  0  0  0
 36 76  1  0  0  0  0
 36 77  1  0  0  0  0
 37 38  1  0  0  0  0
 37 78  1  0  0  0  0
 37 79  1  0  0  0  0
 38 39  1  0  0  0  0
 38 80  1  0  0  0  0
 38 81  1  0  0  0  0
 39 40  1  0  0  0  0
 39 82  1  0  0  0  0
 39 83  1  0  0  0  0
 40 84  1  0  0  0  0
 40 85  1  0  0  0  0
 41 42  1  0  0  0  0
 41 43  1  0  0  0  0
 41 86  1  6  0  0  0
 42 87  1  0  0  0  0
 43 44  1  0  0  0  0
 43 45  1  0  0  0  0
 43 88  1  6  0  0  0
 44 89  1  0  0  0  0
 44 90  1  0  0  0  0
 44 91  1  0  0  0  0
 45 46  1  0  0  0  0
 45 92  1  0  0  0  0
 45 93  1  0  0  0  0
 46 94  1  0  0  0  0
M  END
