4qlv_ligand
 OpenBabel08222323353D

 87 89  0  0  1  0  0  0  0  0999 V2000
    7.7130 -136.2370   19.7840 C   0  0  0  0  0  0  0  0  0  0  0  0
    7.2110 -137.0930   19.0870 O   0  0  0  0  0  0  0  0  0  0  0  0
    6.9620 -134.9890   20.1430 C   0  0  0  0  0  0  0  0  0  0  0  0
    5.6670 -135.0080   19.4890 N   0  3  0  0  0  0  0  0  0  0  0  0
    3.0290 -134.6800   20.0390 O   0  0  0  0  0  0  0  0  0  0  0  0
    4.8700 -136.1200   20.0210 C   0  0  0  0  0  0  0  0  0  0  0  0
    5.1030 -133.6740   19.7090 C   0  0  0  0  0  0  0  0  0  0  0  0
    3.4320 -135.9720   19.6030 C   0  0  0  0  0  0  0  0  0  0  0  0
    3.6530 -133.6490   19.3140 C   0  0  0  0  0  0  0  0  0  0  0  0
    8.9260 -136.3190   20.2680 N   0  0  0  0  0  0  0  0  0  0  0  0
    9.7340 -137.4580   19.9830 C   0  0  2  0  0  0  0  0  0  0  0  0
   10.5760 -137.6530   21.2220 C   0  0  0  0  0  0  0  0  0  0  0  0
   10.5910 -137.0550   18.8340 C   0  0  0  0  0  0  0  0  0  0  0  0
   11.0770 -135.9490   18.8350 O   0  0  0  0  0  0  0  0  0  0  0  0
   10.7340 -137.9200   17.8550 N   0  0  0  0  0  0  0  0  0  0  0  0
   11.5690 -137.6360   16.7050 C   0  0  1  0  0  0  0  0  0  0  0  0
   12.6630 -138.6740   16.7190 C   0  0  0  0  0  0  0  0  0  0  0  0
   13.4810 -138.4890   17.8090 C   0  0  0  0  0  0  0  0  0  0  0  0
   13.1050 -138.8930   19.0590 C   0  0  0  0  0  0  0  0  0  0  0  0
   13.9410 -138.7050   20.1430 C   0  0  0  0  0  0  0  0  0  0  0  0
   15.1710 -138.1180   19.9710 C   0  0  0  0  0  0  0  0  0  0  0  0
   16.0240 -137.9010   20.9970 O   0  0  0  0  0  0  0  0  0  0  0  0
   16.2250 -139.0370   21.8200 C   0  0  0  0  0  0  0  0  0  0  0  0
   15.5420 -137.7200   18.7150 C   0  0  0  0  0  0  0  0  0  0  0  0
   14.7070 -137.9110   17.6460 C   0  0  0  0  0  0  0  0  0  0  0  0
   10.7530 -137.7020   15.4170 C   0  0  0  0  0  0  0  0  0  0  0  0
    9.6190 -138.1180   15.4440 O   0  0  0  0  0  0  0  0  0  0  0  0
   11.3370 -137.2750   14.2990 N   0  0  0  0  0  0  0  0  0  0  0  0
   10.6400 -137.1850   13.0100 C   0  0  2  0  0  0  0  0  0  0  0  0
   11.4060 -137.9120   11.8900 C   0  0  1  0  0  0  0  0  0  0  0  0
   12.6890 -137.4860   12.0190 O   0  0  0  0  0  0  0  0  0  0  0  0
   11.3570 -139.4360   11.9220 C   0  0  2  0  0  0  0  0  0  0  0  0
    9.9700 -139.8620   12.2760 C   0  0  0  0  0  0  0  0  0  0  0  0
   12.2720 -139.9600   13.0060 C   0  0  0  0  0  0  0  0  0  0  0  0
   13.4890 -139.1880   13.0300 O   0  0  0  0  0  0  0  0  0  0  0  0
   10.6230 -135.6920   12.6470 C   0  0  0  0  0  0  0  0  0  0  0  0
    9.6630 -134.8730   13.2260 C   0  0  0  0  0  0  0  0  0  0  0  0
    8.7200 -135.3150   14.1160 C   0  0  0  0  0  0  0  0  0  0  0  0
    7.8050 -134.4380   14.6570 C   0  0  0  0  0  0  0  0  0  0  0  0
    7.8100 -133.1150   14.3180 C   0  0  0  0  0  0  0  0  0  0  0  0
    8.7470 -132.6670   13.4310 C   0  0  0  0  0  0  0  0  0  0  0  0
    9.6610 -133.5410   12.8940 C   0  0  0  0  0  0  0  0  0  0  0  0
    7.5302 -134.1084   19.8088 H   0  0  0  0  0  0  0  0  0  0  0  0
    6.8231 -134.9437   21.2332 H   0  0  0  0  0  0  0  0  0  0  0  0
    5.7826 -135.1527   18.4982 H   0  0  0  0  0  0  0  0  0  0  0  0
    4.9315 -136.1190   21.1193 H   0  0  0  0  0  0  0  0  0  0  0  0
    5.2658 -137.0699   19.6324 H   0  0  0  0  0  0  0  0  0  0  0  0
    5.6567 -132.9415   19.1033 H   0  0  0  0  0  0  0  0  0  0  0  0
    5.1936 -133.4128   20.7737 H   0  0  0  0  0  0  0  0  0  0  0  0
    3.3415 -136.0521   18.5097 H   0  0  0  0  0  0  0  0  0  0  0  0
    2.8136 -136.7467   20.0799 H   0  0  0  0  0  0  0  0  0  0  0  0
    3.2050 -132.6777   19.5706 H   0  0  0  0  0  0  0  0  0  0  0  0
    3.5495 -133.8265   18.2334 H   0  0  0  0  0  0  0  0  0  0  0  0
    9.2866 -135.5813   20.8388 H   0  0  0  0  0  0  0  0  0  0  0  0
    9.1394 -138.3536   19.7500 H   0  0  0  0  0  0  0  0  0  0  0  0
   11.2359 -138.5222   21.0838 H   0  0  0  0  0  0  0  0  0  0  0  0
    9.9198 -137.8249   22.0880 H   0  0  0  0  0  0  0  0  0  0  0  0
   11.1854 -136.7540   21.3964 H   0  0  0  0  0  0  0  0  0  0  0  0
   10.2546 -138.7962   17.9048 H   0  0  0  0  0  0  0  0  0  0  0  0
   12.0072 -136.6313   16.7978 H   0  0  0  0  0  0  0  0  0  0  0  0
   13.2590 -138.5858   15.7987 H   0  0  0  0  0  0  0  0  0  0  0  0
   12.2122 -139.6761   16.7693 H   0  0  0  0  0  0  0  0  0  0  0  0
   12.1402 -139.3662   19.2018 H   0  0  0  0  0  0  0  0  0  0  0  0
   13.6257 -139.0212   21.1308 H   0  0  0  0  0  0  0  0  0  0  0  0
   16.9271 -138.7845   22.6283 H   0  0  0  0  0  0  0  0  0  0  0  0
   16.6401 -139.8579   21.2169 H   0  0  0  0  0  0  0  0  0  0  0  0
   15.2639 -139.3503   22.2537 H   0  0  0  0  0  0  0  0  0  0  0  0
   16.5066 -137.2488   18.5647 H   0  0  0  0  0  0  0  0  0  0  0  0
   15.0240 -137.5990   16.6574 H   0  0  0  0  0  0  0  0  0  0  0  0
   12.2982 -137.0021   14.3394 H   0  0  0  0  0  0  0  0  0  0  0  0
    9.6205 -137.5890   13.0962 H   0  0  0  0  0  0  0  0  0  0  0  0
   11.0004 -137.5874   10.9204 H   0  0  0  0  0  0  0  0  0  0  0  0
   13.0144 -137.7208   12.8801 H   0  0  0  0  0  0  0  0  0  0  0  0
   11.6501 -139.8436   10.9433 H   0  0  0  0  0  0  0  0  0  0  0  0
    9.9195 -140.9605   12.3029 H   0  0  0  0  0  0  0  0  0  0  0  0
    9.2656 -139.4809   11.5219 H   0  0  0  0  0  0  0  0  0  0  0  0
    9.7033 -139.4584   13.2639 H   0  0  0  0  0  0  0  0  0  0  0  0
   12.5118 -141.0143   12.8039 H   0  0  0  0  0  0  0  0  0  0  0  0
   11.7683 -139.8788   13.9805 H   0  0  0  0  0  0  0  0  0  0  0  0
   13.2818 -138.2776   13.2051 H   0  0  0  0  0  0  0  0  0  0  0  0
   10.4893 -135.6259   11.5572 H   0  0  0  0  0  0  0  0  0  0  0  0
   11.6059 -135.2815   12.9214 H   0  0  0  0  0  0  0  0  0  0  0  0
    8.6934 -136.3617   14.3966 H   0  0  0  0  0  0  0  0  0  0  0  0
    7.0689 -134.8043   15.3635 H   0  0  0  0  0  0  0  0  0  0  0  0
    7.0836 -132.4330   14.7451 H   0  0  0  0  0  0  0  0  0  0  0  0
    8.7696 -131.6202   13.1503 H   0  0  0  0  0  0  0  0  0  0  0  0
   10.3982 -133.1699   12.1913 H   0  0  0  0  0  0  0  0  0  0  0  0
  1  2  2  0  0  0  0
  1 10  1  0  0  0  0
  3  1  1  0  0  0  0
  3 43  1  0  0  0  0
  3 44  1  0  0  0  0
  4  3  1  0  0  0  0
  4  7  1  0  0  0  0
  4 45  1  0  0  0  0
  5  9  1  0  0  0  0
  6  4  1  0  0  0  0
  6  8  1  0  0  0  0
  6 46  1  0  0  0  0
  6 47  1  0  0  0  0
  7  9  1  0  0  0  0
  7 48  1  0  0  0  0
  7 49  1  0  0  0  0
  8  5  1  0  0  0  0
  8 50  1  0  0  0  0
  8 51  1  0  0  0  0
  9 52  1  0  0  0  0
  9 53  1  0  0  0  0
 10 11  1  0  0  0  0
 10 54  1  0  0  0  0
 11 12  1  0  0  0  0
 11 13  1  0  0  0  0
 11 55  1  6  0  0  0
 12 56  1  0  0  0  0
 12 57  1  0  0  0  0
 12 58  1  0  0  0  0
 13 14  2  0  0  0  0
 13 15  1  0  0  0  0
 15 16  1  0  0  0  0
 15 59  1  0  0  0  0
 16 17  1  0  0  0  0
 16 26  1  0  0  0  0
 16 60  1  1  0  0  0
 17 18  1  0  0  0  0
 17 61  1  0  0  0  0
 17 62  1  0  0  0  0
 18 19  2  0  0  0  0
 18 25  1  0  0  0  0
 19 20  1  0  0  0  0
 19 63  1  0  0  0  0
 20 21  2  0  0  0  0
 20 64  1  0  0  0  0
 21 22  1  0  0  0  0
 21 24  1  0  0  0  0
 22 23  1  0  0  0  0
 23 65  1  0  0  0  0
 23 66  1  0  0  0  0
 23 67  1  0  0  0  0
 24 25  2  0  0  0  0
 24 68  1  0  0  0  0
 25 69  1  0  0  0  0
 26 27  2  0  0  0  0
 26 28  1  0  0  0  0
 28 29  1  0  0  0  0
 28 70  1  0  0  0  0
 29 30  1  0  0  0  0
 29 36  1  0  0  0  0
 29 71  1  1  0  0  0
 30 31  1  0  0  0  0
 30 32  1  0  0  0  0
 30 72  1  6  0  0  0
 31 73  1  0  0  0  0
 32 33  1  0  0  0  0
 32 34  1  0  0  0  0
 32 74  1  6  0  0  0
 33 75  1  0  0  0  0
 33 76  1  0  0  0  0
 33 77  1  0  0  0  0
 34 35  1  0  0  0  0
 34 78  1  0  0  0  0
 34 79  1  0  0  0  0
 35 80  1  0  0  0  0
 36 37  1  0  0  0  0
 36 81  1  0  0  0  0
 36 82  1  0  0  0  0
 37 38  2  0  0  0  0
 37 42  1  0  0  0  0
 38 39  1  0  0  0  0
 38 83  1  0  0  0  0
 39 40  2  0  0  0  0
 39 84  1  0  0  0  0
 40 41  1  0  0  0  0
 40 85  1  0  0  0  0
 41 42  2  0  0  0  0
 41 86  1  0  0  0  0
 42 87  1  0  0  0  0
M  CHG  1   4   1
M  END
