4qme_ligand
 OpenBabel08222323353D

 51 52  0  0  1  0  0  0  0  0999 V2000
    8.0690   41.8320  -22.8690 C   0  0  1  0  0  0  0  0  0  0  0  0
    8.1810   40.4540  -22.2430 C   0  0  0  0  0  0  0  0  0  0  0  0
    9.4530   39.9200  -22.3890 O   0  0  0  0  0  0  0  0  0  0  0  0
    7.8730   40.6020  -20.8650 O   0  0  0  0  0  0  0  0  0  0  0  0
    9.2640   42.2900  -23.7280 C   0  0  0  0  0  0  0  0  0  0  0  0
    9.5030   44.0940  -23.5580 P   0  0  1  0  0  0  0  0  0  0  0  0
    8.9760   44.9770  -24.7690 O   0  0  0  0  0  1  0  0  0  0  0  0
    8.9060   44.6000  -22.3080 O   0  0  0  0  0  0  0  0  0  0  0  0
   11.2560   44.4620  -23.5750 C   0  0  1  0  0  0  0  0  0  0  0  0
   11.3590   45.9320  -23.4310 N   0  3  0  0  0  0  0  0  0  0  0  0
   12.0020   43.6700  -22.5360 C   0  0  0  0  0  0  0  0  0  0  0  0
   13.5060   43.9120  -22.5620 C   0  0  0  0  0  0  0  0  0  0  0  0
   14.5310   42.7410  -22.4200 C   0  0  0  0  0  0  0  0  0  0  0  0
   14.5850   41.7010  -23.4030 C   0  0  0  0  0  0  0  0  0  0  0  0
   15.5260   40.6550  -23.2740 C   0  0  0  0  0  0  0  0  0  0  0  0
   16.4110   40.6540  -22.1800 C   0  0  0  0  0  0  0  0  0  0  0  0
   16.3730   41.6980  -21.2010 C   0  0  0  0  0  0  0  0  0  0  0  0
   15.4220   42.7520  -21.3250 C   0  0  0  0  0  0  0  0  0  0  0  0
    6.8470   41.8680  -23.7400 C   0  0  0  0  0  0  0  0  0  0  0  0
    5.4960   41.8430  -22.9420 C   0  0  0  0  0  0  0  0  0  0  0  0
    5.4330   42.0870  -21.5790 C   0  0  0  0  0  0  0  0  0  0  0  0
    4.2110   42.0550  -20.9170 C   0  0  0  0  0  0  0  0  0  0  0  0
    3.0560   41.7880  -21.6180 C   0  0  0  0  0  0  0  0  0  0  0  0
    3.1170   41.5470  -22.9740 C   0  0  0  0  0  0  0  0  0  0  0  0
    4.3330   41.5840  -23.6310 C   0  0  0  0  0  0  0  0  0  0  0  0
    7.9501   42.5567  -22.0501 H   0  0  0  0  0  0  0  0  0  0  0  0
    7.4553   39.7767  -22.7170 H   0  0  0  0  0  0  0  0  0  0  0  0
    9.4887   39.0697  -21.9667 H   0  0  0  0  0  0  0  0  0  0  0  0
    8.5056   41.1842  -20.4610 H   0  0  0  0  0  0  0  0  0  0  0  0
    9.0687   42.0465  -24.7828 H   0  0  0  0  0  0  0  0  0  0  0  0
   10.1734   41.7692  -23.3937 H   0  0  0  0  0  0  0  0  0  0  0  0
   11.6699   44.1815  -24.5548 H   0  0  0  0  0  0  0  0  0  0  0  0
   12.3300   46.2026  -23.4337 H   0  0  0  0  0  0  0  0  0  0  0  0
   10.9338   46.2151  -22.5621 H   0  0  0  0  0  0  0  0  0  0  0  0
   10.8835   46.3790  -24.1992 H   0  0  0  0  0  0  0  0  0  0  0  0
   11.8170   42.6001  -22.7125 H   0  0  0  0  0  0  0  0  0  0  0  0
   11.6202   43.9492  -21.5429 H   0  0  0  0  0  0  0  0  0  0  0  0
   13.7206   44.6115  -21.7407 H   0  0  0  0  0  0  0  0  0  0  0  0
   13.7240   44.3983  -23.5243 H   0  0  0  0  0  0  0  0  0  0  0  0
   13.9039   41.7163  -24.2461 H   0  0  0  0  0  0  0  0  0  0  0  0
   15.5658   39.8608  -24.0107 H   0  0  0  0  0  0  0  0  0  0  0  0
   17.1320   39.8511  -22.0770 H   0  0  0  0  0  0  0  0  0  0  0  0
   17.0660   41.6867  -20.3675 H   0  0  0  0  0  0  0  0  0  0  0  0
   15.3834   43.5487  -20.5910 H   0  0  0  0  0  0  0  0  0  0  0  0
    6.8713   40.9937  -24.4071 H   0  0  0  0  0  0  0  0  0  0  0  0
    6.8771   42.7888  -24.3410 H   0  0  0  0  0  0  0  0  0  0  0  0
    6.3404   42.3037  -21.0270 H   0  0  0  0  0  0  0  0  0  0  0  0
    4.1673   42.2401  -19.8498 H   0  0  0  0  0  0  0  0  0  0  0  0
    2.1014   41.7674  -21.1048 H   0  0  0  0  0  0  0  0  0  0  0  0
    2.2101   41.3281  -23.5260 H   0  0  0  0  0  0  0  0  0  0  0  0
    4.3708   41.4072  -24.6998 H   0  0  0  0  0  0  0  0  0  0  0  0
  1  2  1  0  0  0  0
  1  5  1  0  0  0  0
  1 19  1  0  0  0  0
  1 26  1  1  0  0  0
  2  3  1  0  0  0  0
  2  4  1  0  0  0  0
  2 27  1  0  0  0  0
  3 28  1  0  0  0  0
  4 29  1  0  0  0  0
  5  6  1  0  0  0  0
  5 30  1  0  0  0  0
  5 31  1  0  0  0  0
  6  7  1  6  0  0  0
  6  8  2  0  0  0  0
  6  9  1  0  0  0  0
  9 10  1  0  0  0  0
  9 11  1  0  0  0  0
  9 32  1  6  0  0  0
 10 33  1  0  0  0  0
 10 34  1  0  0  0  0
 10 35  1  0  0  0  0
 11 12  1  0  0  0  0
 11 36  1  0  0  0  0
 11 37  1  0  0  0  0
 12 13  1  0  0  0  0
 12 38  1  0  0  0  0
 12 39  1  0  0  0  0
 13 14  2  0  0  0  0
 13 18  1  0  0  0  0
 14 15  1  0  0  0  0
 14 40  1  0  0  0  0
 15 16  2  0  0  0  0
 15 41  1  0  0  0  0
 16 17  1  0  0  0  0
 16 42  1  0  0  0  0
 17 18  2  0  0  0  0
 17 43  1  0  0  0  0
 18 44  1  0  0  0  0
 19 20  1  0  0  0  0
 19 45  1  0  0  0  0
 19 46  1  0  0  0  0
 20 21  2  0  0  0  0
 20 25  1  0  0  0  0
 21 22  1  0  0  0  0
 21 47  1  0  0  0  0
 22 23  2  0  0  0  0
 22 48  1  0  0  0  0
 23 24  1  0  0  0  0
 23 49  1  0  0  0  0
 24 25  2  0  0  0  0
 24 50  1  0  0  0  0
 25 51  1  0  0  0  0
M  CHG  1  10   1
M  END
