4qnu_ligand
 OpenBabel08222323353D

 53 55  0  0  1  0  0  0  0  0999 V2000
   37.7910   72.6840    9.9840 C   0  0  0  0  0  0  0  0  0  0  0  0
   36.5350   70.7190    9.0190 N   0  3  0  0  0  0  0  0  0  0  0  0
   37.9800   73.5060   10.8850 O   0  5  0  0  0  0  0  0  0  0  0  0
   34.3350   61.3120   10.1680 N   0  0  0  0  0  0  0  0  0  0  0  0
   33.9370   62.6900    9.8340 C   0  0  0  0  0  0  0  0  0  0  0  0
   34.2920   63.6350   10.9030 N   0  0  0  0  0  0  0  0  0  0  0  0
   34.9110   63.2990   12.0260 C   0  0  0  0  0  0  0  0  0  0  0  0
   35.1520   62.0080   12.2740 C   0  0  0  0  0  0  0  0  0  0  0  0
   34.8430   61.0510   11.3710 C   0  0  1  0  0  3  0  0  0  0  0  0
   34.9860   59.7890   11.7190 N   0  0  0  0  0  0  0  0  0  0  0  0
   35.6010   61.9620   13.5190 N   0  0  0  0  0  0  0  0  0  0  0  0
   35.7430   63.2110   13.9820 C   0  0  0  0  0  0  0  0  0  0  0  0
   35.3340   64.0580   13.0380 N   0  0  0  0  0  0  0  0  0  0  0  0
   36.5790   71.7270   10.1150 C   0  0  1  0  0  0  0  0  0  0  0  0
   36.6170   71.0690   11.5130 C   0  0  0  0  0  0  0  0  0  0  0  0
   37.9580   69.6820   13.5510 S   0  0  1  0  0  3  0  0  0  0  0  0
   39.6980   69.5030   14.1440 C   0  0  0  0  0  0  0  0  0  0  0  0
   37.8710   70.1770   11.7750 C   0  0  0  0  0  0  0  0  0  0  0  0
   40.5460   70.7550   13.9700 C   0  0  0  0  0  0  0  0  0  0  0  0
   35.1460   65.5540   13.1370 C   0  0  1  0  0  0  0  0  0  0  0  0
   35.0430   66.1030   14.5460 C   0  0  2  0  0  0  0  0  0  0  0  0
   33.7340   65.8540   15.0940 O   0  0  0  0  0  0  0  0  0  0  0  0
   35.2000   67.5800   14.2910 C   0  0  2  0  0  0  0  0  0  0  0  0
   34.0390   68.2420   13.8530 O   0  0  0  0  0  0  0  0  0  0  0  0
   36.1280   67.6430   13.1770 C   0  0  2  0  0  0  0  0  0  0  0  0
   36.1960   66.3160   12.5710 O   0  0  0  0  0  0  0  0  0  0  0  0
   37.4430   67.9670   13.8590 C   0  0  0  0  0  0  0  0  0  0  0  0
   38.5710   72.5560    9.0230 O   0  0  0  0  0  0  0  0  0  0  0  0
   39.9350   71.8370   14.1740 O   0  5  0  0  0  0  0  0  0  0  0  0
   41.7790   70.5790   13.6870 O   0  0  0  0  0  0  0  0  0  0  0  0
   35.7335   70.1207    9.1447 H   0  0  0  0  0  0  0  0  0  0  0  0
   37.3757   70.1632    9.0397 H   0  0  0  0  0  0  0  0  0  0  0  0
   36.4659   71.1909    8.1310 H   0  0  0  0  0  0  0  0  0  0  0  0
   34.2214   60.5566    9.4771 H   0  0  0  0  0  0  0  0  0  0  0  0
   33.4401   62.9745    8.9077 H   0  0  0  0  0  0  0  0  0  0  0  0
   35.3757   59.5503   12.6421 H   0  0  0  0  0  0  0  0  0  0  0  0
   34.7082   59.0406   11.0681 H   0  0  0  0  0  0  0  0  0  0  0  0
   36.1272   63.4872   14.9628 H   0  0  0  0  0  0  0  0  0  0  0  0
   35.6604   72.3281   10.0455 H   0  0  0  0  0  0  0  0  0  0  0  0
   35.7202   70.4413   11.6218 H   0  0  0  0  0  0  0  0  0  0  0  0
   36.5995   71.8677   12.2692 H   0  0  0  0  0  0  0  0  0  0  0  0
   40.1718   68.6842   13.5826 H   0  0  0  0  0  0  0  0  0  0  0  0
   39.6739   69.2482   15.2138 H   0  0  0  0  0  0  0  0  0  0  0  0
   38.7776   70.7420   11.5126 H   0  0  0  0  0  0  0  0  0  0  0  0
   37.8085   69.2735   11.1508 H   0  0  0  0  0  0  0  0  0  0  0  0
   34.2132   65.7856   12.6019 H   0  0  0  0  0  0  0  0  0  0  0  0
   35.8244   65.7025   15.2085 H   0  0  0  0  0  0  0  0  0  0  0  0
   33.0789   66.2758   14.5505 H   0  0  0  0  0  0  0  0  0  0  0  0
   35.5957   68.0782   15.1883 H   0  0  0  0  0  0  0  0  0  0  0  0
   33.7454   67.8568   13.0357 H   0  0  0  0  0  0  0  0  0  0  0  0
   35.8463   68.4041   12.4345 H   0  0  0  0  0  0  0  0  0  0  0  0
   37.3279   67.8189   14.9429 H   0  0  0  0  0  0  0  0  0  0  0  0
   38.2192   67.2879   13.4765 H   0  0  0  0  0  0  0  0  0  0  0  0
  1  3  1  0  0  0  0
  1 28  2  0  0  0  0
  2 31  1  0  0  0  0
  2 32  1  0  0  0  0
  2 33  1  0  0  0  0
  4 34  1  0  0  0  0
  5  4  1  0  0  0  0
  5 35  1  0  0  0  0
  6  5  2  0  0  0  0
  7  6  1  0  0  0  0
  7  8  2  0  0  0  0
  8  9  1  0  0  0  0
  9  4  1  0  0  0  0
  9 10  1  1  0  0  0
 10 36  1  0  0  0  0
 10 37  1  0  0  0  0
 11  8  1  0  0  0  0
 12 11  2  0  0  0  0
 12 38  1  0  0  0  0
 13  7  1  0  0  0  0
 13 12  1  0  0  0  0
 14  1  1  0  0  0  0
 14  2  1  0  0  0  0
 14 39  1  6  0  0  0
 15 14  1  0  0  0  0
 15 40  1  0  0  0  0
 15 41  1  0  0  0  0
 16 17  1  6  0  0  0
 16 18  1  0  0  0  0
 17 19  1  0  0  0  0
 17 42  1  0  0  0  0
 17 43  1  0  0  0  0
 18 15  1  0  0  0  0
 18 44  1  0  0  0  0
 18 45  1  0  0  0  0
 19 29  1  0  0  0  0
 19 30  2  0  0  0  0
 20 13  1  0  0  0  0
 20 21  1  0  0  0  0
 20 46  1  6  0  0  0
 21 22  1  0  0  0  0
 21 47  1  1  0  0  0
 22 48  1  0  0  0  0
 23 21  1  0  0  0  0
 23 24  1  0  0  0  0
 23 49  1  1  0  0  0
 24 50  1  0  0  0  0
 25 23  1  0  0  0  0
 25 26  1  0  0  0  0
 25 27  1  0  0  0  0
 25 51  1  6  0  0  0
 26 20  1  0  0  0  0
 27 16  1  0  0  0  0
 27 52  1  0  0  0  0
 27 53  1  0  0  0  0
M  CHG  3   2   1   3  -1  29  -1
M  END
