4qp1_ligand
 OpenBabel08222323353D

 28 30  0  0  0  0  0  0  0  0999 V2000
  -16.7790  -37.1570  -27.6600 N   0  0  0  0  0  0  0  0  0  0  0  0
  -17.5160  -36.8520  -28.7120 C   0  0  0  0  0  0  0  0  0  0  0  0
  -17.8420  -35.6140  -29.0090 N   0  0  0  0  0  0  0  0  0  0  0  0
  -17.4310  -34.6020  -28.2410 C   0  0  0  0  0  0  0  0  0  0  0  0
  -16.6480  -34.8830  -27.1130 C   0  0  0  0  0  0  0  0  0  0  0  0
  -16.3310  -36.2110  -26.8390 C   0  0  0  0  0  0  0  0  0  0  0  0
  -14.5480  -37.5930  -25.8440 C   0  0  0  0  0  0  0  0  0  0  0  0
  -16.3740  -33.6690  -26.5190 N   0  0  0  0  0  0  0  0  0  0  0  0
  -16.9710  -32.7180  -27.2690 C   0  0  0  0  0  0  0  0  0  0  0  0
  -17.5900  -33.2680  -28.2760 N   0  0  0  0  0  0  0  0  0  0  0  0
  -14.8680  -38.6940  -24.8680 C   0  0  0  0  0  0  0  0  0  0  0  0
  -15.7080  -39.7250  -25.2460 C   0  0  0  0  0  0  0  0  0  0  0  0
  -16.0020  -40.7370  -24.3530 C   0  0  0  0  0  0  0  0  0  0  0  0
  -15.4560  -40.7170  -23.0820 C   0  0  0  0  0  0  0  0  0  0  0  0
  -14.6150  -39.6860  -22.7040 C   0  0  0  0  0  0  0  0  0  0  0  0
  -14.3210  -38.6740  -23.5980 C   0  0  0  0  0  0  0  0  0  0  0  0
  -15.5510  -36.5300  -25.7390 N   0  0  0  0  0  0  0  0  0  0  0  0
  -17.8651  -37.6522  -29.3545 H   0  0  0  0  0  0  0  0  0  0  0  0
  -14.5516  -37.9988  -26.8664 H   0  0  0  0  0  0  0  0  0  0  0  0
  -13.5538  -37.1808  -25.6166 H   0  0  0  0  0  0  0  0  0  0  0  0
  -15.8190  -33.5165  -25.6648 H   0  0  0  0  0  0  0  0  0  0  0  0
  -16.9400  -31.6491  -27.0631 H   0  0  0  0  0  0  0  0  0  0  0  0
  -16.1354  -39.7392  -26.2421 H   0  0  0  0  0  0  0  0  0  0  0  0
  -16.6601  -41.5463  -24.6479 H   0  0  0  0  0  0  0  0  0  0  0  0
  -15.6877  -41.5108  -22.3811 H   0  0  0  0  0  0  0  0  0  0  0  0
  -14.1872  -39.6718  -21.7081 H   0  0  0  0  0  0  0  0  0  0  0  0
  -13.6621  -37.8650  -23.3040 H   0  0  0  0  0  0  0  0  0  0  0  0
  -15.6757  -36.0222  -24.8516 H   0  0  0  0  0  0  0  0  0  0  0  0
  1  2  2  0  0  0  0
  2  3  1  0  0  0  0
  2 18  1  0  0  0  0
  4  3  2  0  0  0  0
  4 10  1  0  0  0  0
  5  4  1  0  0  0  0
  5  8  1  0  0  0  0
  6  1  1  0  0  0  0
  6  5  2  0  0  0  0
  7 11  1  0  0  0  0
  7 17  1  0  0  0  0
  7 19  1  0  0  0  0
  7 20  1  0  0  0  0
  8  9  1  0  0  0  0
  8 21  1  0  0  0  0
  9 10  2  0  0  0  0
  9 22  1  0  0  0  0
 11 12  2  0  0  0  0
 11 16  1  0  0  0  0
 12 13  1  0  0  0  0
 12 23  1  0  0  0  0
 13 14  2  0  0  0  0
 13 24  1  0  0  0  0
 14 15  1  0  0  0  0
 14 25  1  0  0  0  0
 15 16  2  0  0  0  0
 15 26  1  0  0  0  0
 16 27  1  0  0  0  0
 17  6  1  0  0  0  0
 17 28  1  0  0  0  0
M  END
