4qp7_ligand
 OpenBabel08222323353D

 21 23  0  0  0  0  0  0  0  0999 V2000
   12.4860   -8.7890    0.9000 N   0  0  0  0  0  0  0  0  0  0  0  0
   13.7010   -9.2550    0.4550 C   0  0  0  0  0  0  0  0  0  0  0  0
   14.2880   -9.9820    1.5130 C   0  0  0  0  0  0  0  0  0  0  0  0
   16.1170  -10.4340    0.1910 C   0  0  0  0  0  0  0  0  0  0  0  0
   13.3310   -9.9140    2.6190 C   0  0  0  0  0  0  0  0  0  0  0  0
   12.2800   -9.1910    2.1900 C   0  0  0  0  0  0  0  0  0  0  0  0
   15.4830  -10.5480    1.3550 N   0  0  0  0  0  0  0  0  0  0  0  0
   15.5310   -9.7060   -0.8480 C   0  0  0  0  0  0  0  0  0  0  0  0
   14.3490   -9.1420   -0.6970 N   0  0  0  0  0  0  0  0  0  0  0  0
   17.4580  -11.0410   -0.0120 C   0  0  0  0  0  0  0  0  0  0  0  0
   18.4080  -11.2180    0.9500 C   0  0  0  0  0  0  0  0  0  0  0  0
   19.4830  -11.7790    0.3650 N   0  0  0  0  0  0  0  0  0  0  0  0
   19.2050  -11.9520   -0.9980 N   0  0  0  0  0  0  0  0  0  0  0  0
   17.9980  -11.5040   -1.2300 C   0  0  0  0  0  0  0  0  0  0  0  0
   11.8297   -8.2220    0.3444 H   0  0  0  0  0  0  0  0  0  0  0  0
   13.4477  -10.3639    3.6038 H   0  0  0  0  0  0  0  0  0  0  0  0
   11.3962   -8.9604    2.7830 H   0  0  0  0  0  0  0  0  0  0  0  0
   16.0556   -9.6036   -1.7911 H   0  0  0  0  0  0  0  0  0  0  0  0
   18.3141  -10.9532    2.0021 H   0  0  0  0  0  0  0  0  0  0  0  0
   19.8415  -12.3614   -1.6966 H   0  0  0  0  0  0  0  0  0  0  0  0
   17.4967  -11.4908   -2.1967 H   0  0  0  0  0  0  0  0  0  0  0  0
  1  2  1  0  0  0  0
  1  6  1  0  0  0  0
  1 15  1  0  0  0  0
  2  3  2  0  0  0  0
  2  9  1  0  0  0  0
  3  5  1  0  0  0  0
  3  7  1  0  0  0  0
  4  8  1  0  0  0  0
  4 10  1  0  0  0  0
  5  6  2  0  0  0  0
  5 16  1  0  0  0  0
  6 17  1  0  0  0  0
  7  4  2  0  0  0  0
  8  9  2  0  0  0  0
  8 18  1  0  0  0  0
 10 11  1  0  0  0  0
 10 14  2  0  0  0  0
 11 12  2  0  0  0  0
 11 19  1  0  0  0  0
 12 13  1  0  0  0  0
 13 14  1  0  0  0  0
 13 20  1  0  0  0  0
 14 21  1  0  0  0  0
M  END
