4qp8_ligand
 OpenBabel08222323353D

 30 33  0  0  0  0  0  0  0  0999 V2000
   35.4140  -45.5110   37.6180 C   0  0  0  0  0  0  0  0  0  0  0  0
   36.0880  -45.3780   35.4180 C   0  0  0  0  0  0  0  0  0  0  0  0
   36.5340  -44.2220   39.4350 C   0  0  0  0  0  0  0  0  0  0  0  0
   37.5860  -43.5970   40.0180 C   0  0  0  0  0  0  0  0  0  0  0  0
   34.1710  -44.4580   42.7960 C   0  0  0  0  0  0  0  0  0  0  0  0
   32.2650  -45.6060   41.6440 C   0  0  0  0  0  0  0  0  0  0  0  0
   31.6030  -46.1900   40.5450 C   0  0  0  0  0  0  0  0  0  0  0  0
   37.0940  -44.4830   35.7280 C   0  0  0  0  0  0  0  0  0  0  0  0
   37.2630  -44.0860   37.0430 C   0  0  0  0  0  0  0  0  0  0  0  0
   36.4080  -44.6180   38.0130 C   0  0  0  0  0  0  0  0  0  0  0  0
   35.2910  -45.8580   36.3540 N   0  0  0  0  0  0  0  0  0  0  0  0
   37.3190  -43.3910   41.3390 N   0  0  0  0  0  0  0  0  0  0  0  0
   36.0730  -43.8770   41.6600 C   0  0  0  0  0  0  0  0  0  0  0  0
   35.5220  -44.4170   40.4830 C   0  0  0  0  0  0  0  0  0  0  0  0
   34.3100  -44.9620   40.4980 N   0  0  0  0  0  0  0  0  0  0  0  0
   33.6200  -44.9960   41.6290 C   0  0  0  0  0  0  0  0  0  0  0  0
   35.3720  -43.9160   42.7870 N   0  0  0  0  0  0  0  0  0  0  0  0
   31.4320  -45.7060   42.7220 C   0  0  0  0  0  0  0  0  0  0  0  0
   30.3060  -46.3230   42.3120 N   0  0  0  0  0  0  0  0  0  0  0  0
   30.4350  -46.6150   40.9490 N   0  0  0  0  0  0  0  0  0  0  0  0
   34.7367  -45.9232   38.3572 H   0  0  0  0  0  0  0  0  0  0  0  0
   35.9512  -45.6910   34.3892 H   0  0  0  0  0  0  0  0  0  0  0  0
   38.5034  -43.3044   39.5094 H   0  0  0  0  0  0  0  0  0  0  0  0
   33.6034  -44.4871   43.7191 H   0  0  0  0  0  0  0  0  0  0  0  0
   31.9971  -46.2728   39.5332 H   0  0  0  0  0  0  0  0  0  0  0  0
   37.7431  -44.0964   34.9506 H   0  0  0  0  0  0  0  0  0  0  0  0
   38.0393  -43.3798   37.3143 H   0  0  0  0  0  0  0  0  0  0  0  0
   37.9605  -42.9352   42.0035 H   0  0  0  0  0  0  0  0  0  0  0  0
   31.6401  -45.3513   43.7304 H   0  0  0  0  0  0  0  0  0  0  0  0
   29.4899  -46.5422   42.9010 H   0  0  0  0  0  0  0  0  0  0  0  0
  1 11  1  0  0  0  0
  1 21  1  0  0  0  0
  2 22  1  0  0  0  0
  3  4  2  0  0  0  0
  3 10  1  0  0  0  0
  4 23  1  0  0  0  0
  5 16  2  0  0  0  0
  5 24  1  0  0  0  0
  6  7  1  0  0  0  0
  6 18  2  0  0  0  0
  7 20  2  0  0  0  0
  7 25  1  0  0  0  0
  8  2  1  0  0  0  0
  8 26  1  0  0  0  0
  9  8  2  0  0  0  0
  9 27  1  0  0  0  0
 10  1  2  0  0  0  0
 10  9  1  0  0  0  0
 11  2  2  0  0  0  0
 12  4  1  0  0  0  0
 12 28  1  0  0  0  0
 13 12  1  0  0  0  0
 13 14  1  0  0  0  0
 13 17  2  0  0  0  0
 14  3  1  0  0  0  0
 14 15  2  0  0  0  0
 15 16  1  0  0  0  0
 16  6  1  0  0  0  0
 17  5  1  0  0  0  0
 18 19  1  0  0  0  0
 18 29  1  0  0  0  0
 19 20  1  0  0  0  0
 19 30  1  0  0  0  0
M  END
