4qq5_ligand
 OpenBabel08222323353D

 85 90  0  0  1  0  0  0  0  0999 V2000
  -64.5250  146.1090    2.6180 C   0  0  0  0  0  0  0  0  0  0  0  0
  -64.3210  147.4300    2.6760 N   0  0  0  0  0  0  0  0  0  0  0  0
  -63.1610  147.9970    2.3730 C   0  0  0  0  0  0  0  0  0  0  0  0
  -62.1140  147.2520    1.9490 N   0  0  0  0  0  0  0  0  0  0  0  0
  -62.2290  145.9010    1.8460 C   0  0  0  0  0  0  0  0  0  0  0  0
  -63.4610  145.2870    2.1880 C   0  0  0  0  0  0  0  0  0  0  0  0
  -61.1420  145.0790    1.3850 N   0  0  0  0  0  0  0  0  0  0  0  0
  -61.1190  143.7220    1.7680 C   0  0  2  0  0  0  0  0  0  0  0  0
  -62.2980  143.1980    2.3560 N   0  0  0  0  0  0  0  0  0  0  0  0
  -63.5270  143.8650    2.0490 C   0  0  0  0  0  0  0  0  0  0  0  0
  -63.0850  149.4280    2.5000 N   0  0  0  0  0  0  0  0  0  0  0  0
  -61.9140  150.2460    2.3940 C   0  0  0  0  0  0  0  0  0  0  0  0
  -62.1540  151.7100    2.0990 C   0  0  0  0  0  0  0  0  0  0  0  0
  -61.1110  152.5570    1.9920 C   0  0  0  0  0  0  0  0  0  0  0  0
  -59.6770  152.0460    2.1750 C   0  0  0  0  0  0  0  0  0  0  0  0
  -59.4460  150.7370    2.4480 C   0  0  0  0  0  0  0  0  0  0  0  0
  -60.6300  149.7780    2.5760 C   0  0  0  0  0  0  0  0  0  0  0  0
  -58.6350  153.0150    2.0440 N   0  0  0  0  0  0  0  0  0  0  0  0
  -57.4480  152.9570    2.8210 C   0  0  0  0  0  0  0  0  0  0  0  0
  -56.4920  153.9270    2.6530 C   0  0  0  0  0  0  0  0  0  0  0  0
  -56.6890  154.9820    1.7220 N   0  0  0  0  0  0  0  0  0  0  0  0
  -57.8870  155.0380    0.9450 C   0  0  0  0  0  0  0  0  0  0  0  0
  -58.8330  154.0730    1.1120 C   0  0  0  0  0  0  0  0  0  0  0  0
  -55.6710  156.0140    1.5470 C   0  0  0  0  0  0  0  0  0  0  0  0
  -62.4010  141.7980    2.7270 C   0  0  0  0  0  0  0  0  0  0  0  0
  -62.1080  140.7970    1.7970 C   0  0  0  0  0  0  0  0  0  0  0  0
  -62.2250  139.4580    2.1780 C   0  0  0  0  0  0  0  0  0  0  0  0
  -62.6380  139.1330    3.5010 C   0  0  0  0  0  0  0  0  0  0  0  0
  -62.9320  140.1600    4.4190 C   0  0  0  0  0  0  0  0  0  0  0  0
  -62.8180  141.4960    4.0220 C   0  0  0  0  0  0  0  0  0  0  0  0
  -63.3700  139.9030    5.7640 O   0  0  0  0  0  0  0  0  0  0  0  0
  -61.9130  138.4590    1.2160 O   0  0  0  0  0  0  0  0  0  0  0  0
  -63.7330  138.5350    6.0730 C   0  0  0  0  0  0  0  0  0  0  0  0
  -62.2750  137.1460    1.5740 C   0  0  0  0  0  0  0  0  0  0  0  0
  -59.9670  142.9510    1.5790 O   0  0  0  0  0  0  0  0  0  0  0  0
  -60.0050  145.7210    0.7090 C   0  0  0  0  0  0  0  0  0  0  0  0
  -58.6940  145.8350    1.4740 C   0  0  0  0  0  0  0  0  0  0  0  0
  -57.5930  145.1800    1.0030 C   0  0  0  0  0  0  0  0  0  0  0  0
  -56.3830  145.2960    1.6780 C   0  0  0  0  0  0  0  0  0  0  0  0
  -56.3080  146.0820    2.8230 C   0  0  0  0  0  0  0  0  0  0  0  0
  -57.4180  146.7470    3.2690 C   0  0  0  0  0  0  0  0  0  0  0  0
  -58.6220  146.6330    2.6030 C   0  0  0  0  0  0  0  0  0  0  0  0
  -55.0960  146.2770    3.5640 N   0  0  0  0  0  0  0  0  0  0  0  0
  -53.8060  146.4410    2.9420 C   0  0  0  0  0  0  0  0  0  0  0  0
  -52.5870  146.6990    3.8370 C   0  0  0  0  0  0  0  0  0  0  0  0
  -51.4290  145.7240    3.5870 C   0  0  0  0  0  0  0  0  0  0  0  0
  -53.6630  146.3660    1.7380 O   0  0  0  0  0  0  0  0  0  0  0  0
  -65.4821  145.6812    2.8939 H   0  0  0  0  0  0  0  0  0  0  0  0
  -61.4750  143.4205    0.7718 H   0  0  0  0  0  0  0  0  0  0  0  0
  -63.7990  143.6301    1.0094 H   0  0  0  0  0  0  0  0  0  0  0  0
  -64.3062  143.4858    2.7265 H   0  0  0  0  0  0  0  0  0  0  0  0
  -63.9709  149.9187    2.6880 H   0  0  0  0  0  0  0  0  0  0  0  0
  -63.1658  152.0783    1.9735 H   0  0  0  0  0  0  0  0  0  0  0  0
  -61.2868  153.6045    1.7755 H   0  0  0  0  0  0  0  0  0  0  0  0
  -58.4321  150.3748    2.5741 H   0  0  0  0  0  0  0  0  0  0  0  0
  -60.4603  148.7331    2.8092 H   0  0  0  0  0  0  0  0  0  0  0  0
  -57.2983  152.1535    3.5406 H   0  0  0  0  0  0  0  0  0  0  0  0
  -55.5745  153.8878    3.2383 H   0  0  0  0  0  0  0  0  0  0  0  0
  -58.0415  155.8429    0.2279 H   0  0  0  0  0  0  0  0  0  0  0  0
  -59.7505  154.1108    0.5267 H   0  0  0  0  0  0  0  0  0  0  0  0
  -54.8252  155.8126    2.2208 H   0  0  0  0  0  0  0  0  0  0  0  0
  -56.1019  156.9980    1.7835 H   0  0  0  0  0  0  0  0  0  0  0  0
  -55.3189  156.0088    0.5049 H   0  0  0  0  0  0  0  0  0  0  0  0
  -61.7938  141.0562    0.7924 H   0  0  0  0  0  0  0  0  0  0  0  0
  -62.7262  138.0953    3.8019 H   0  0  0  0  0  0  0  0  0  0  0  0
  -63.0529  142.2929    4.7183 H   0  0  0  0  0  0  0  0  0  0  0  0
  -64.0486  138.4680    7.1246 H   0  0  0  0  0  0  0  0  0  0  0  0
  -62.8654  137.8792    5.9081 H   0  0  0  0  0  0  0  0  0  0  0  0
  -64.5607  138.2190    5.4210 H   0  0  0  0  0  0  0  0  0  0  0  0
  -61.9917  136.4546    0.7667 H   0  0  0  0  0  0  0  0  0  0  0  0
  -63.3620  137.0962    1.7348 H   0  0  0  0  0  0  0  0  0  0  0  0
  -61.7539  136.8615    2.5000 H   0  0  0  0  0  0  0  0  0  0  0  0
  -59.2936  143.4841    1.1729 H   0  0  0  0  0  0  0  0  0  0  0  0
  -60.3171  146.7409    0.4400 H   0  0  0  0  0  0  0  0  0  0  0  0
  -59.8011  145.1464   -0.2066 H   0  0  0  0  0  0  0  0  0  0  0  0
  -57.6616  144.5728    0.1077 H   0  0  0  0  0  0  0  0  0  0  0  0
  -55.5036  144.7771    1.3141 H   0  0  0  0  0  0  0  0  0  0  0  0
  -57.3512  147.3694    4.1540 H   0  0  0  0  0  0  0  0  0  0  0  0
  -59.4990  147.1612    2.9593 H   0  0  0  0  0  0  0  0  0  0  0  0
  -55.1483  146.3004    4.5624 H   0  0  0  0  0  0  0  0  0  0  0  0
  -52.9000  146.6062    4.8874 H   0  0  0  0  0  0  0  0  0  0  0  0
  -52.2278  147.7218    3.6503 H   0  0  0  0  0  0  0  0  0  0  0  0
  -50.5935  145.9668    4.2600 H   0  0  0  0  0  0  0  0  0  0  0  0
  -51.0955  145.8109    2.5424 H   0  0  0  0  0  0  0  0  0  0  0  0
  -51.7677  144.6953    3.7795 H   0  0  0  0  0  0  0  0  0  0  0  0
  1  2  2  0  0  0  0
  1  6  1  0  0  0  0
  1 48  1  0  0  0  0
  2  3  1  0  0  0  0
  3  4  2  0  0  0  0
  3 11  1  0  0  0  0
  4  5  1  0  0  0  0
  5  6  2  0  0  0  0
  5  7  1  0  0  0  0
  6 10  1  0  0  0  0
  7  8  1  0  0  0  0
  7 36  1  0  0  0  0
  8  9  1  0  0  0  0
  8 35  1  0  0  0  0
  8 49  1  6  0  0  0
  9 10  1  0  0  0  0
  9 25  1  0  0  0  0
 10 50  1  0  0  0  0
 10 51  1  0  0  0  0
 11 12  1  0  0  0  0
 11 52  1  0  0  0  0
 12 13  2  0  0  0  0
 12 17  1  0  0  0  0
 13 14  1  0  0  0  0
 13 53  1  0  0  0  0
 14 15  2  0  0  0  0
 14 54  1  0  0  0  0
 15 16  1  0  0  0  0
 15 18  1  0  0  0  0
 16 17  2  0  0  0  0
 16 55  1  0  0  0  0
 17 56  1  0  0  0  0
 18 19  1  0  0  0  0
 18 23  1  0  0  0  0
 19 20  2  0  0  0  0
 19 57  1  0  0  0  0
 20 21  1  0  0  0  0
 20 58  1  0  0  0  0
 21 22  1  0  0  0  0
 21 24  1  0  0  0  0
 22 23  2  0  0  0  0
 22 59  1  0  0  0  0
 23 60  1  0  0  0  0
 24 61  1  0  0  0  0
 24 62  1  0  0  0  0
 24 63  1  0  0  0  0
 25 26  2  0  0  0  0
 25 30  1  0  0  0  0
 26 27  1  0  0  0  0
 26 64  1  0  0  0  0
 27 28  2  0  0  0  0
 27 32  1  0  0  0  0
 28 29  1  0  0  0  0
 28 65  1  0  0  0  0
 29 30  2  0  0  0  0
 29 31  1  0  0  0  0
 30 66  1  0  0  0  0
 31 33  1  0  0  0  0
 32 34  1  0  0  0  0
 33 67  1  0  0  0  0
 33 68  1  0  0  0  0
 33 69  1  0  0  0  0
 34 70  1  0  0  0  0
 34 71  1  0  0  0  0
 34 72  1  0  0  0  0
 35 73  1  0  0  0  0
 36 37  1  0  0  0  0
 36 74  1  0  0  0  0
 36 75  1  0  0  0  0
 37 38  2  0  0  0  0
 37 42  1  0  0  0  0
 38 39  1  0  0  0  0
 38 76  1  0  0  0  0
 39 40  2  0  0  0  0
 39 77  1  0  0  0  0
 40 41  1  0  0  0  0
 40 43  1  0  0  0  0
 41 42  2  0  0  0  0
 41 78  1  0  0  0  0
 42 79  1  0  0  0  0
 43 44  1  0  0  0  0
 43 80  1  0  0  0  0
 44 45  1  0  0  0  0
 44 47  2  0  0  0  0
 45 46  1  0  0  0  0
 45 81  1  0  0  0  0
 45 82  1  0  0  0  0
 46 83  1  0  0  0  0
 46 84  1  0  0  0  0
 46 85  1  0  0  0  0
M  END
