4qr3_ligand
 OpenBabel08222323353D

 37 39  0  0  0  0  0  0  0  0999 V2000
    8.6220  -10.6910   -1.9040 C   0  0  0  0  0  0  0  0  0  0  0  0
    9.0610  -12.1180   -2.0190 C   0  0  0  0  0  0  0  0  0  0  0  0
    9.1700  -12.3960   -3.5010 C   0  0  0  0  0  0  0  0  0  0  0  0
    8.4600  -11.2710   -4.1950 C   0  0  0  0  0  0  0  0  0  0  0  0
    7.9710  -10.3310   -3.1700 C   0  0  0  0  0  0  0  0  0  0  0  0
    8.3240   -8.9690   -3.5120 N   0  0  0  0  0  0  0  0  0  0  0  0
    7.1830   -7.8420   -3.0830 S   0  0  0  0  0  0  0  0  0  0  0  0
    5.8180   -8.3490   -3.3000 O   0  0  0  0  0  0  0  0  0  0  0  0
    7.4010   -6.5850   -3.8150 O   0  0  0  0  0  0  0  0  0  0  0  0
    7.2620   -7.4770   -1.3280 C   0  0  0  0  0  0  0  0  0  0  0  0
    8.3470   -6.7610   -0.8210 C   0  0  0  0  0  0  0  0  0  0  0  0
    6.2320   -7.9060   -0.5000 C   0  0  0  0  0  0  0  0  0  0  0  0
    6.2720   -7.6230    0.8700 C   0  0  0  0  0  0  0  0  0  0  0  0
    7.3500   -6.9070    1.3840 C   0  0  0  0  0  0  0  0  0  0  0  0
    8.3790   -6.4890    0.5480 C   0  0  0  0  0  0  0  0  0  0  0  0
    9.5280   -5.7070    1.1010 C   0  0  0  0  0  0  0  0  0  0  0  0
    9.3830   -4.8320    2.1970 C   0  0  0  0  0  0  0  0  0  0  0  0
   10.9080   -4.1500    2.4610 S   0  0  0  0  0  0  0  0  0  0  0  0
   11.6740   -4.9520    1.1860 C   0  0  0  0  0  0  0  0  0  0  0  0
   12.9960   -4.8390    0.8470 O   0  0  0  0  0  0  0  0  0  0  0  0
   10.7900   -5.7600    0.5510 N   0  0  0  0  0  0  0  0  0  0  0  0
    9.4931  -10.0420   -1.7308 H   0  0  0  0  0  0  0  0  0  0  0  0
    7.9118  -10.5816   -1.0712 H   0  0  0  0  0  0  0  0  0  0  0  0
    8.3187  -12.7857   -1.5574 H   0  0  0  0  0  0  0  0  0  0  0  0
   10.0360  -12.2597   -1.5298 H   0  0  0  0  0  0  0  0  0  0  0  0
    8.6913  -13.3560   -3.7445 H   0  0  0  0  0  0  0  0  0  0  0  0
   10.2264  -12.4252   -3.8062 H   0  0  0  0  0  0  0  0  0  0  0  0
    7.6113  -11.6665   -4.7723 H   0  0  0  0  0  0  0  0  0  0  0  0
    9.1553  -10.7539   -4.8726 H   0  0  0  0  0  0  0  0  0  0  0  0
    6.8784  -10.4155   -3.0745 H   0  0  0  0  0  0  0  0  0  0  0  0
    9.1811   -8.7280   -3.9673 H   0  0  0  0  0  0  0  0  0  0  0  0
    9.1447   -6.4245   -1.4734 H   0  0  0  0  0  0  0  0  0  0  0  0
    5.3976   -8.4598   -0.9151 H   0  0  0  0  0  0  0  0  0  0  0  0
    5.4737   -7.9570    1.5229 H   0  0  0  0  0  0  0  0  0  0  0  0
    7.3870   -6.6742    2.4421 H   0  0  0  0  0  0  0  0  0  0  0  0
    8.4721   -4.6349    2.7603 H   0  0  0  0  0  0  0  0  0  0  0  0
   11.0284   -6.3333   -0.2329 H   0  0  0  0  0  0  0  0  0  0  0  0
  1  2  1  0  0  0  0
  1  5  1  0  0  0  0
  1 22  1  0  0  0  0
  1 23  1  0  0  0  0
  2  3  1  0  0  0  0
  2 24  1  0  0  0  0
  2 25  1  0  0  0  0
  3  4  1  0  0  0  0
  3 26  1  0  0  0  0
  3 27  1  0  0  0  0
  4  5  1  0  0  0  0
  4 28  1  0  0  0  0
  4 29  1  0  0  0  0
  5  6  1  0  0  0  0
  5 30  1  0  0  0  0
  6  7  1  0  0  0  0
  6 31  1  0  0  0  0
  7  8  2  0  0  0  0
  7  9  2  0  0  0  0
  7 10  1  0  0  0  0
 10 11  2  0  0  0  0
 10 12  1  0  0  0  0
 11 15  1  0  0  0  0
 11 32  1  0  0  0  0
 12 13  2  0  0  0  0
 12 33  1  0  0  0  0
 13 14  1  0  0  0  0
 13 34  1  0  0  0  0
 14 15  2  0  0  0  0
 14 35  1  0  0  0  0
 15 16  1  0  0  0  0
 16 17  2  0  0  0  0
 16 21  1  0  0  0  0
 17 18  1  0  0  0  0
 17 36  1  0  0  0  0
 18 19  1  0  0  0  0
 19 20  2  0  0  0  0
 19 21  1  0  0  0  0
 21 37  1  0  0  0  0
M  END
