4qta_ligand
 OpenBabel08222323353D

 78 84  0  0  1  0  0  0  0  0999 V2000
   29.9660   59.0040   33.5270 O   0  0  0  0  0  0  0  0  0  0  0  0
   28.8490   58.6180   33.9270 C   0  0  0  0  0  0  0  0  0  0  0  0
   28.0070   59.3950   34.6460 N   0  0  0  0  0  0  0  0  0  0  0  0
   28.2020   60.6990   35.1240 C   0  0  0  0  0  0  0  0  0  0  0  0
   27.0750   61.3950   35.5600 C   0  0  0  0  0  0  0  0  0  0  0  0
   27.2130   62.7230   35.9780 C   0  0  0  0  0  0  0  0  0  0  0  0
   26.3240   63.7790   36.4840 C   0  0  0  0  0  0  0  0  0  0  0  0
   24.8320   63.8030   36.6120 C   0  0  0  0  0  0  0  0  0  0  0  0
   24.0350   62.8440   35.9920 C   0  0  0  0  0  0  0  0  0  0  0  0
   22.6790   62.8370   36.2460 C   0  0  0  0  0  0  0  0  0  0  0  0
   22.0880   63.7130   37.0710 N   0  0  0  0  0  0  0  0  0  0  0  0
   22.8600   64.6160   37.6670 C   0  0  0  0  0  0  0  0  0  0  0  0
   24.2300   64.7010   37.4870 C   0  0  0  0  0  0  0  0  0  0  0  0
   27.0550   64.8430   36.7420 N   0  0  0  0  0  0  0  0  0  0  0  0
   28.3550   64.5600   36.4520 N   0  0  0  0  0  0  0  0  0  0  0  0
   28.4920   63.3080   35.9750 C   0  0  0  0  0  0  0  0  0  0  0  0
   29.6320   62.6000   35.5840 C   0  0  0  0  0  0  0  0  0  0  0  0
   29.4680   61.3040   35.1570 C   0  0  0  0  0  0  0  0  0  0  0  0
   28.3460   57.2670   33.6470 C   0  0  2  0  0  0  0  0  0  0  0  0
   28.4020   56.4240   34.9720 C   0  0  0  0  0  0  0  0  0  0  0  0
   29.1990   56.5180   32.6500 C   0  0  0  0  0  0  0  0  0  0  0  0
   30.0730   55.6550   33.4590 N   0  3  1  0  0  0  0  0  0  0  0  0
   29.2660   55.2260   34.6130 C   0  0  0  0  0  0  0  0  0  0  0  0
   30.8670   54.7190   32.7370 C   0  0  0  0  0  0  0  0  0  0  0  0
   32.0150   54.1480   33.5120 C   0  0  0  0  0  0  0  0  0  0  0  0
   32.2970   54.5710   34.6090 O   0  0  0  0  0  0  0  0  0  0  0  0
   32.6150   53.0850   32.9750 N   0  0  0  0  0  0  0  0  0  0  0  0
   32.1140   52.2550   31.8900 C   0  0  0  0  0  0  0  0  0  0  0  0
   31.4160   51.0390   32.4670 C   0  0  0  0  0  0  0  0  0  0  0  0
   32.2870   50.3060   33.4000 N   0  0  0  0  0  0  0  0  0  0  0  0
   33.0230   51.1680   34.3300 C   0  0  0  0  0  0  0  0  0  0  0  0
   33.6580   52.3450   33.6810 C   0  0  0  0  0  0  0  0  0  0  0  0
   31.8070   49.1110   34.0330 C   0  0  0  0  0  0  0  0  0  0  0  0
   30.6470   48.4860   33.6210 C   0  0  0  0  0  0  0  0  0  0  0  0
   30.1390   47.4030   34.3460 C   0  0  0  0  0  0  0  0  0  0  0  0
   30.7550   46.9570   35.5200 C   0  0  0  0  0  0  0  0  0  0  0  0
   31.9140   47.6000   35.9290 C   0  0  0  0  0  0  0  0  0  0  0  0
   32.4540   48.6370   35.1930 C   0  0  0  0  0  0  0  0  0  0  0  0
   30.1010   45.9400   36.3770 C   0  0  0  0  0  0  0  0  0  0  0  0
   30.5220   45.8470   37.6570 N   0  0  0  0  0  0  0  0  0  0  0  0
   29.8260   45.0040   38.4350 C   0  0  0  0  0  0  0  0  0  0  0  0
   28.8020   44.2150   37.9620 C   0  0  0  0  0  0  0  0  0  0  0  0
   28.4860   44.3660   36.6370 C   0  0  0  0  0  0  0  0  0  0  0  0
   29.0960   45.2410   35.8260 N   0  0  0  0  0  0  0  0  0  0  0  0
   27.1233   58.9826   34.8673 H   0  0  0  0  0  0  0  0  0  0  0  0
   26.1041   60.9131   35.5749 H   0  0  0  0  0  0  0  0  0  0  0  0
   24.4731   62.1145   35.3204 H   0  0  0  0  0  0  0  0  0  0  0  0
   22.0642   62.0901   35.7568 H   0  0  0  0  0  0  0  0  0  0  0  0
   22.3886   65.3287   38.3340 H   0  0  0  0  0  0  0  0  0  0  0  0
   24.8165   65.4458   38.0127 H   0  0  0  0  0  0  0  0  0  0  0  0
   26.7021   65.7407   37.1033 H   0  0  0  0  0  0  0  0  0  0  0  0
   30.6138   63.0584   35.6165 H   0  0  0  0  0  0  0  0  0  0  0  0
   30.3352   60.7368   34.8388 H   0  0  0  0  0  0  0  0  0  0  0  0
   27.3131   57.3359   33.2751 H   0  0  0  0  0  0  0  0  0  0  0  0
   27.3941   56.1023   35.2730 H   0  0  0  0  0  0  0  0  0  0  0  0
   28.8597   57.0056   35.7858 H   0  0  0  0  0  0  0  0  0  0  0  0
   29.7979   57.2198   32.0511 H   0  0  0  0  0  0  0  0  0  0  0  0
   28.5691   55.9114   31.9828 H   0  0  0  0  0  0  0  0  0  0  0  0
   30.7661   56.2715   33.8534 H   0  0  0  0  0  0  0  0  0  0  0  0
   28.6367   54.3651   34.3432 H   0  0  0  0  0  0  0  0  0  0  0  0
   29.9166   54.9543   35.4573 H   0  0  0  0  0  0  0  0  0  0  0  0
   31.2710   55.2252   31.8479 H   0  0  0  0  0  0  0  0  0  0  0  0
   30.2179   53.8883   32.4229 H   0  0  0  0  0  0  0  0  0  0  0  0
   32.9540   51.9306   31.2582 H   0  0  0  0  0  0  0  0  0  0  0  0
   31.4015   52.8339   31.2840 H   0  0  0  0  0  0  0  0  0  0  0  0
   31.1296   50.3678   31.6440 H   0  0  0  0  0  0  0  0  0  0  0  0
   30.5136   51.3667   33.0039 H   0  0  0  0  0  0  0  0  0  0  0  0
   33.8113   50.5686   34.8088 H   0  0  0  0  0  0  0  0  0  0  0  0
   32.3217   51.5306   35.0960 H   0  0  0  0  0  0  0  0  0  0  0  0
   34.1212   52.9879   34.4440 H   0  0  0  0  0  0  0  0  0  0  0  0
   34.4261   52.0098   32.9685 H   0  0  0  0  0  0  0  0  0  0  0  0
   30.1294   48.8349   32.7348 H   0  0  0  0  0  0  0  0  0  0  0  0
   29.2482   46.8981   33.9902 H   0  0  0  0  0  0  0  0  0  0  0  0
   32.4047   47.2833   36.8422 H   0  0  0  0  0  0  0  0  0  0  0  0
   33.3855   49.0914   35.5107 H   0  0  0  0  0  0  0  0  0  0  0  0
   30.0824   44.9413   39.4864 H   0  0  0  0  0  0  0  0  0  0  0  0
   28.2759   43.5147   38.6006 H   0  0  0  0  0  0  0  0  0  0  0  0
   27.7005   43.7443   36.2229 H   0  0  0  0  0  0  0  0  0  0  0  0
  1  2  2  0  0  0  0
  2  3  1  0  0  0  0
  2 19  1  0  0  0  0
  3  4  1  0  0  0  0
  3 45  1  0  0  0  0
  4  5  2  0  0  0  0
  4 18  1  0  0  0  0
  5  6  1  0  0  0  0
  5 46  1  0  0  0  0
  6  7  2  0  0  0  0
  6 16  1  0  0  0  0
  7  8  1  0  0  0  0
  7 14  1  0  0  0  0
  8  9  2  0  0  0  0
  8 13  1  0  0  0  0
  9 10  1  0  0  0  0
  9 47  1  0  0  0  0
 10 11  2  0  0  0  0
 10 48  1  0  0  0  0
 11 12  1  0  0  0  0
 12 13  2  0  0  0  0
 12 49  1  0  0  0  0
 13 50  1  0  0  0  0
 14 15  1  0  0  0  0
 14 51  1  0  0  0  0
 15 16  2  0  0  0  0
 16 17  1  0  0  0  0
 17 18  2  0  0  0  0
 17 52  1  0  0  0  0
 18 53  1  0  0  0  0
 19 20  1  0  0  0  0
 19 21  1  0  0  0  0
 19 54  1  6  0  0  0
 20 23  1  0  0  0  0
 20 55  1  0  0  0  0
 20 56  1  0  0  0  0
 21 22  1  0  0  0  0
 21 57  1  0  0  0  0
 21 58  1  0  0  0  0
 22 23  1  0  0  0  0
 22 24  1  0  0  0  0
 22 59  1  1  0  0  0
 23 60  1  0  0  0  0
 23 61  1  0  0  0  0
 24 25  1  0  0  0  0
 24 62  1  0  0  0  0
 24 63  1  0  0  0  0
 25 26  2  0  0  0  0
 25 27  1  0  0  0  0
 27 28  1  0  0  0  0
 27 32  1  0  0  0  0
 28 29  1  0  0  0  0
 28 64  1  0  0  0  0
 28 65  1  0  0  0  0
 29 30  1  0  0  0  0
 29 66  1  0  0  0  0
 29 67  1  0  0  0  0
 30 31  1  0  0  0  0
 30 33  1  0  0  0  0
 31 32  1  0  0  0  0
 31 68  1  0  0  0  0
 31 69  1  0  0  0  0
 32 70  1  0  0  0  0
 32 71  1  0  0  0  0
 33 34  2  0  0  0  0
 33 38  1  0  0  0  0
 34 35  1  0  0  0  0
 34 72  1  0  0  0  0
 35 36  2  0  0  0  0
 35 73  1  0  0  0  0
 36 37  1  0  0  0  0
 36 39  1  0  0  0  0
 37 38  2  0  0  0  0
 37 74  1  0  0  0  0
 38 75  1  0  0  0  0
 39 40  2  0  0  0  0
 39 44  1  0  0  0  0
 40 41  1  0  0  0  0
 41 42  2  0  0  0  0
 41 76  1  0  0  0  0
 42 43  1  0  0  0  0
 42 77  1  0  0  0  0
 43 44  2  0  0  0  0
 43 78  1  0  0  0  0
M  CHG  1  22   1
M  END
