4qtc_ligand
 OpenBabel08222323353D

 78 84  0  0  1  0  0  0  0  0999 V2000
   60.6110   33.0280   11.2180 O   0  0  0  0  0  0  0  0  0  0  0  0
   61.1170   32.8720   12.3240 C   0  0  0  0  0  0  0  0  0  0  0  0
   62.1000   31.9700   12.6080 N   0  0  0  0  0  0  0  0  0  0  0  0
   62.9610   31.3500   11.6710 C   0  0  0  0  0  0  0  0  0  0  0  0
   63.6260   30.2200   12.1310 C   0  0  0  0  0  0  0  0  0  0  0  0
   64.6090   29.6290   11.3220 C   0  0  0  0  0  0  0  0  0  0  0  0
   65.5780   28.5170   11.4290 C   0  0  0  0  0  0  0  0  0  0  0  0
   65.8090   27.5570   12.5340 C   0  0  0  0  0  0  0  0  0  0  0  0
   65.0900   27.5910   13.7080 C   0  0  0  0  0  0  0  0  0  0  0  0
   65.4270   26.7170   14.7300 C   0  0  0  0  0  0  0  0  0  0  0  0
   66.4320   25.8130   14.6440 N   0  0  0  0  0  0  0  0  0  0  0  0
   67.0970   25.7930   13.4920 C   0  0  0  0  0  0  0  0  0  0  0  0
   66.8350   26.6230   12.4200 C   0  0  0  0  0  0  0  0  0  0  0  0
   66.3010   28.4810   10.3460 N   0  0  0  0  0  0  0  0  0  0  0  0
   65.8890   29.4640    9.5140 N   0  0  0  0  0  0  0  0  0  0  0  0
   64.8720   30.1850   10.0660 C   0  0  0  0  0  0  0  0  0  0  0  0
   64.1790   31.2920    9.5980 C   0  0  0  0  0  0  0  0  0  0  0  0
   63.2120   31.8530   10.4100 C   0  0  0  0  0  0  0  0  0  0  0  0
   60.8440   33.7990   13.4880 C   0  0  2  0  0  0  0  0  0  0  0  0
   59.6390   33.1870   14.1280 C   0  0  0  0  0  0  0  0  0  0  0  0
   60.5500   35.2880   13.1530 C   0  0  0  0  0  0  0  0  0  0  0  0
   59.0800   35.2410   13.0810 N   0  3  2  0  0  0  0  0  0  0  0  0
   58.5480   33.9180   13.4220 C   0  0  0  0  0  0  0  0  0  0  0  0
   58.1810   36.3170   12.6590 C   0  0  0  0  0  0  0  0  0  0  0  0
   56.8510   35.7950   12.1140 C   0  0  0  0  0  0  0  0  0  0  0  0
   56.7860   34.6770   11.6140 O   0  0  0  0  0  0  0  0  0  0  0  0
   55.7580   36.5710   12.2420 N   0  0  0  0  0  0  0  0  0  0  0  0
   55.7130   37.9640   12.7270 C   0  0  0  0  0  0  0  0  0  0  0  0
   55.0060   38.8550   11.7120 C   0  0  0  0  0  0  0  0  0  0  0  0
   53.6920   38.3070   11.3620 N   0  0  0  0  0  0  0  0  0  0  0  0
   53.3690   37.0610   12.0630 C   0  0  0  0  0  0  0  0  0  0  0  0
   54.4530   36.0280   11.8430 C   0  0  0  0  0  0  0  0  0  0  0  0
   52.8120   38.8370   10.3960 C   0  0  0  0  0  0  0  0  0  0  0  0
   53.2920   39.4530    9.2360 C   0  0  0  0  0  0  0  0  0  0  0  0
   52.4250   39.7900    8.2080 C   0  0  0  0  0  0  0  0  0  0  0  0
   51.0600   39.5150    8.2920 C   0  0  0  0  0  0  0  0  0  0  0  0
   50.5820   38.9750    9.4840 C   0  0  0  0  0  0  0  0  0  0  0  0
   51.4360   38.6460   10.5190 C   0  0  0  0  0  0  0  0  0  0  0  0
   50.1730   39.6190    7.0920 C   0  0  0  0  0  0  0  0  0  0  0  0
   50.7190   40.1000    5.9650 N   0  0  0  0  0  0  0  0  0  0  0  0
   49.9370   40.0650    4.8740 C   0  0  0  0  0  0  0  0  0  0  0  0
   48.6520   39.5830    4.8780 C   0  0  0  0  0  0  0  0  0  0  0  0
   48.1880   39.1370    6.0910 C   0  0  0  0  0  0  0  0  0  0  0  0
   48.9210   39.1500    7.2150 N   0  0  0  0  0  0  0  0  0  0  0  0
   62.2242   31.7234   13.5691 H   0  0  0  0  0  0  0  0  0  0  0  0
   63.3887   29.8004   13.1019 H   0  0  0  0  0  0  0  0  0  0  0  0
   64.2719   28.2914   13.8313 H   0  0  0  0  0  0  0  0  0  0  0  0
   64.8542   26.7595   15.6493 H   0  0  0  0  0  0  0  0  0  0  0  0
   67.9016   25.0742   13.3874 H   0  0  0  0  0  0  0  0  0  0  0  0
   67.4165   26.5488   11.5081 H   0  0  0  0  0  0  0  0  0  0  0  0
   67.0616   27.8133   10.1548 H   0  0  0  0  0  0  0  0  0  0  0  0
   64.3910   31.7067    8.6192 H   0  0  0  0  0  0  0  0  0  0  0  0
   62.6412   32.7018   10.0511 H   0  0  0  0  0  0  0  0  0  0  0  0
   61.7025   33.7729   14.1752 H   0  0  0  0  0  0  0  0  0  0  0  0
   59.6167   33.3743   15.2117 H   0  0  0  0  0  0  0  0  0  0  0  0
   59.5874   32.1041   13.9419 H   0  0  0  0  0  0  0  0  0  0  0  0
   60.9975   35.5880   12.1939 H   0  0  0  0  0  0  0  0  0  0  0  0
   60.8995   35.9632   13.9479 H   0  0  0  0  0  0  0  0  0  0  0  0
   59.0045   35.5642   14.0328 H   0  0  0  0  0  0  0  0  0  0  0  0
   57.6722   34.0195   14.0797 H   0  0  0  0  0  0  0  0  0  0  0  0
   58.2596   33.3782   12.5080 H   0  0  0  0  0  0  0  0  0  0  0  0
   58.6783   36.9027   11.8718 H   0  0  0  0  0  0  0  0  0  0  0  0
   57.9768   36.9647   13.5243 H   0  0  0  0  0  0  0  0  0  0  0  0
   56.7396   38.3292   12.8775 H   0  0  0  0  0  0  0  0  0  0  0  0
   55.1679   37.9984   13.6818 H   0  0  0  0  0  0  0  0  0  0  0  0
   55.6213   38.9241   10.8028 H   0  0  0  0  0  0  0  0  0  0  0  0
   54.8747   39.8584   12.1431 H   0  0  0  0  0  0  0  0  0  0  0  0
   52.4142   36.6693   11.6823 H   0  0  0  0  0  0  0  0  0  0  0  0
   53.2781   37.2655   13.1400 H   0  0  0  0  0  0  0  0  0  0  0  0
   54.2314   35.1346   12.4453 H   0  0  0  0  0  0  0  0  0  0  0  0
   54.4834   35.7541   10.7781 H   0  0  0  0  0  0  0  0  0  0  0  0
   54.3500   39.6686    9.1398 H   0  0  0  0  0  0  0  0  0  0  0  0
   52.8155   40.2767    7.3216 H   0  0  0  0  0  0  0  0  0  0  0  0
   49.5172   38.8094    9.6019 H   0  0  0  0  0  0  0  0  0  0  0  0
   51.0320   38.2348   11.4370 H   0  0  0  0  0  0  0  0  0  0  0  0
   50.3423   40.4374    3.9401 H   0  0  0  0  0  0  0  0  0  0  0  0
   48.0429   39.5561    3.9817 H   0  0  0  0  0  0  0  0  0  0  0  0
   47.1753   38.7539    6.1434 H   0  0  0  0  0  0  0  0  0  0  0  0
  1  2  2  0  0  0  0
  2  3  1  0  0  0  0
  2 19  1  0  0  0  0
  3  4  1  0  0  0  0
  3 45  1  0  0  0  0
  4  5  2  0  0  0  0
  4 18  1  0  0  0  0
  5  6  1  0  0  0  0
  5 46  1  0  0  0  0
  6  7  2  0  0  0  0
  6 16  1  0  0  0  0
  7  8  1  0  0  0  0
  7 14  1  0  0  0  0
  8  9  2  0  0  0  0
  8 13  1  0  0  0  0
  9 10  1  0  0  0  0
  9 47  1  0  0  0  0
 10 11  2  0  0  0  0
 10 48  1  0  0  0  0
 11 12  1  0  0  0  0
 12 13  2  0  0  0  0
 12 49  1  0  0  0  0
 13 50  1  0  0  0  0
 14 15  1  0  0  0  0
 14 51  1  0  0  0  0
 15 16  2  0  0  0  0
 16 17  1  0  0  0  0
 17 18  2  0  0  0  0
 17 52  1  0  0  0  0
 18 53  1  0  0  0  0
 19 20  1  0  0  0  0
 19 21  1  0  0  0  0
 19 54  1  1  0  0  0
 20 23  1  0  0  0  0
 20 55  1  0  0  0  0
 20 56  1  0  0  0  0
 21 22  1  0  0  0  0
 21 57  1  0  0  0  0
 21 58  1  0  0  0  0
 22 23  1  0  0  0  0
 22 24  1  0  0  0  0
 22 59  1  1  0  0  0
 23 60  1  0  0  0  0
 23 61  1  0  0  0  0
 24 25  1  0  0  0  0
 24 62  1  0  0  0  0
 24 63  1  0  0  0  0
 25 26  2  0  0  0  0
 25 27  1  0  0  0  0
 27 28  1  0  0  0  0
 27 32  1  0  0  0  0
 28 29  1  0  0  0  0
 28 64  1  0  0  0  0
 28 65  1  0  0  0  0
 29 30  1  0  0  0  0
 29 66  1  0  0  0  0
 29 67  1  0  0  0  0
 30 31  1  0  0  0  0
 30 33  1  0  0  0  0
 31 32  1  0  0  0  0
 31 68  1  0  0  0  0
 31 69  1  0  0  0  0
 32 70  1  0  0  0  0
 32 71  1  0  0  0  0
 33 34  2  0  0  0  0
 33 38  1  0  0  0  0
 34 35  1  0  0  0  0
 34 72  1  0  0  0  0
 35 36  2  0  0  0  0
 35 73  1  0  0  0  0
 36 37  1  0  0  0  0
 36 39  1  0  0  0  0
 37 38  2  0  0  0  0
 37 74  1  0  0  0  0
 38 75  1  0  0  0  0
 39 40  2  0  0  0  0
 39 44  1  0  0  0  0
 40 41  1  0  0  0  0
 41 42  2  0  0  0  0
 41 76  1  0  0  0  0
 42 43  1  0  0  0  0
 42 77  1  0  0  0  0
 43 44  2  0  0  0  0
 43 78  1  0  0  0  0
M  CHG  1  22   1
M  END
