4qtd_ligand
 OpenBabel08222323353D

 78 84  0  0  1  0  0  0  0  0999 V2000
   23.4260   11.1210   31.5850 O   0  0  0  0  0  0  0  0  0  0  0  0
   22.6130   12.0430   31.8140 C   0  0  0  0  0  0  0  0  0  0  0  0
   21.3980   11.8900   32.3640 N   0  0  0  0  0  0  0  0  0  0  0  0
   20.7420   10.6900   32.7010 C   0  0  0  0  0  0  0  0  0  0  0  0
   21.2340    9.4360   32.3640 C   0  0  0  0  0  0  0  0  0  0  0  0
   20.4870    8.3190   32.6590 C   0  0  0  0  0  0  0  0  0  0  0  0
   20.6450    6.8610   32.4830 C   0  0  0  0  0  0  0  0  0  0  0  0
   21.7570    6.1170   31.8430 C   0  0  0  0  0  0  0  0  0  0  0  0
   22.6560    6.7600   31.0010 C   0  0  0  0  0  0  0  0  0  0  0  0
   23.7160    6.0390   30.4850 C   0  0  0  0  0  0  0  0  0  0  0  0
   23.9330    4.7470   30.7510 N   0  0  0  0  0  0  0  0  0  0  0  0
   23.0560    4.1360   31.5470 C   0  0  0  0  0  0  0  0  0  0  0  0
   21.9770    4.7770   32.1340 C   0  0  0  0  0  0  0  0  0  0  0  0
   19.5740    6.3060   32.9980 N   0  0  0  0  0  0  0  0  0  0  0  0
   18.7490    7.2430   33.4910 N   0  0  0  0  0  0  0  0  0  0  0  0
   19.2480    8.4770   33.3170 C   0  0  0  0  0  0  0  0  0  0  0  0
   18.7620    9.7180   33.6780 C   0  0  0  0  0  0  0  0  0  0  0  0
   19.5260   10.8230   33.3620 C   0  0  0  0  0  0  0  0  0  0  0  0
   22.9490   13.4910   31.6190 C   0  0  2  0  0  0  0  0  0  0  0  0
   22.1070   14.1410   30.4870 C   0  0  0  0  0  0  0  0  0  0  0  0
   24.4120   13.6690   31.2570 C   0  0  0  0  0  0  0  0  0  0  0  0
   24.1360   13.7990   29.8120 N   0  3  2  0  0  0  0  0  0  0  0  0
   23.1470   14.8430   29.6730 C   0  0  0  0  0  0  0  0  0  0  0  0
   24.4390   12.9340   28.7070 C   0  0  0  0  0  0  0  0  0  0  0  0
   25.4870   13.5120   27.7720 C   0  0  0  0  0  0  0  0  0  0  0  0
   25.3170   14.6310   27.2780 O   0  0  0  0  0  0  0  0  0  0  0  0
   26.5160   12.7170   27.4280 N   0  0  0  0  0  0  0  0  0  0  0  0
   26.8380   11.4500   28.0900 C   0  0  0  0  0  0  0  0  0  0  0  0
   26.8480   10.3410   27.0870 C   0  0  0  0  0  0  0  0  0  0  0  0
   27.8630   10.6100   26.0730 N   0  0  0  0  0  0  0  0  0  0  0  0
   27.6100   11.8820   25.3890 C   0  0  0  0  0  0  0  0  0  0  0  0
   27.4890   13.0410   26.3780 C   0  0  0  0  0  0  0  0  0  0  0  0
   28.4010    9.5410   25.3720 C   0  0  0  0  0  0  0  0  0  0  0  0
   28.2620    8.2320   25.8340 C   0  0  0  0  0  0  0  0  0  0  0  0
   28.7950    7.1740   25.1220 C   0  0  0  0  0  0  0  0  0  0  0  0
   29.4770    7.3800   23.9270 C   0  0  0  0  0  0  0  0  0  0  0  0
   29.6260    8.6860   23.4810 C   0  0  0  0  0  0  0  0  0  0  0  0
   29.1010    9.7510   24.1850 C   0  0  0  0  0  0  0  0  0  0  0  0
   30.0290    6.2400   23.1480 C   0  0  0  0  0  0  0  0  0  0  0  0
   29.8200    5.0080   23.6330 N   0  0  0  0  0  0  0  0  0  0  0  0
   30.2820    3.9960   22.8810 C   0  0  0  0  0  0  0  0  0  0  0  0
   30.9430    4.1760   21.6900 C   0  0  0  0  0  0  0  0  0  0  0  0
   31.1200    5.4800   21.3020 C   0  0  0  0  0  0  0  0  0  0  0  0
   30.6700    6.5310   22.0070 N   0  0  0  0  0  0  0  0  0  0  0  0
   20.8963   12.7328   32.5587 H   0  0  0  0  0  0  0  0  0  0  0  0
   22.1960    9.3383   31.8739 H   0  0  0  0  0  0  0  0  0  0  0  0
   22.5283    7.8076   30.7535 H   0  0  0  0  0  0  0  0  0  0  0  0
   24.4104    6.5497   29.8277 H   0  0  0  0  0  0  0  0  0  0  0  0
   23.1944    3.0795   31.7461 H   0  0  0  0  0  0  0  0  0  0  0  0
   21.3170    4.2426   32.8077 H   0  0  0  0  0  0  0  0  0  0  0  0
   19.3915    5.2926   33.0209 H   0  0  0  0  0  0  0  0  0  0  0  0
   17.8131    9.8208   34.1919 H   0  0  0  0  0  0  0  0  0  0  0  0
   19.1722   11.8110   33.6336 H   0  0  0  0  0  0  0  0  0  0  0  0
   22.7453   14.0197   32.5619 H   0  0  0  0  0  0  0  0  0  0  0  0
   21.3743   14.8527   30.8951 H   0  0  0  0  0  0  0  0  0  0  0  0
   21.5846   13.3777   29.8917 H   0  0  0  0  0  0  0  0  0  0  0  0
   25.0305   12.7936   31.5042 H   0  0  0  0  0  0  0  0  0  0  0  0
   24.8617   14.5716   31.6964 H   0  0  0  0  0  0  0  0  0  0  0  0
   24.9432   14.3741   29.6284 H   0  0  0  0  0  0  0  0  0  0  0  0
   23.4659   15.7985   30.1149 H   0  0  0  0  0  0  0  0  0  0  0  0
   22.8383   15.0063   28.6299 H   0  0  0  0  0  0  0  0  0  0  0  0
   23.5160   12.7600   28.1345 H   0  0  0  0  0  0  0  0  0  0  0  0
   24.8112   11.9773   29.1023 H   0  0  0  0  0  0  0  0  0  0  0  0
   26.0820   11.2383   28.8604 H   0  0  0  0  0  0  0  0  0  0  0  0
   27.8295   11.5256   28.5602 H   0  0  0  0  0  0  0  0  0  0  0  0
   25.8604   10.2715   26.6076 H   0  0  0  0  0  0  0  0  0  0  0  0
   27.0778    9.3915   27.5927 H   0  0  0  0  0  0  0  0  0  0  0  0
   26.6726   11.8002   24.8193 H   0  0  0  0  0  0  0  0  0  0  0  0
   28.4417   12.0874   24.6991 H   0  0  0  0  0  0  0  0  0  0  0  0
   28.4702   13.2288   26.8383 H   0  0  0  0  0  0  0  0  0  0  0  0
   27.1571   13.9422   25.8416 H   0  0  0  0  0  0  0  0  0  0  0  0
   27.7311    8.0429   26.7600 H   0  0  0  0  0  0  0  0  0  0  0  0
   28.6795    6.1652   25.5016 H   0  0  0  0  0  0  0  0  0  0  0  0
   30.1662    8.8736   22.5601 H   0  0  0  0  0  0  0  0  0  0  0  0
   29.2343   10.7598   23.8114 H   0  0  0  0  0  0  0  0  0  0  0  0
   30.1250    2.9826   23.2324 H   0  0  0  0  0  0  0  0  0  0  0  0
   31.3010    3.3428   21.0962 H   0  0  0  0  0  0  0  0  0  0  0  0
   31.6514    5.6724   20.3770 H   0  0  0  0  0  0  0  0  0  0  0  0
  1  2  2  0  0  0  0
  2  3  1  0  0  0  0
  2 19  1  0  0  0  0
  3  4  1  0  0  0  0
  3 45  1  0  0  0  0
  4  5  2  0  0  0  0
  4 18  1  0  0  0  0
  5  6  1  0  0  0  0
  5 46  1  0  0  0  0
  6  7  2  0  0  0  0
  6 16  1  0  0  0  0
  7  8  1  0  0  0  0
  7 14  1  0  0  0  0
  8  9  2  0  0  0  0
  8 13  1  0  0  0  0
  9 10  1  0  0  0  0
  9 47  1  0  0  0  0
 10 11  2  0  0  0  0
 10 48  1  0  0  0  0
 11 12  1  0  0  0  0
 12 13  2  0  0  0  0
 12 49  1  0  0  0  0
 13 50  1  0  0  0  0
 14 15  1  0  0  0  0
 14 51  1  0  0  0  0
 15 16  2  0  0  0  0
 16 17  1  0  0  0  0
 17 18  2  0  0  0  0
 17 52  1  0  0  0  0
 18 53  1  0  0  0  0
 19 20  1  0  0  0  0
 19 21  1  0  0  0  0
 19 54  1  1  0  0  0
 20 23  1  0  0  0  0
 20 55  1  0  0  0  0
 20 56  1  0  0  0  0
 21 22  1  0  0  0  0
 21 57  1  0  0  0  0
 21 58  1  0  0  0  0
 22 23  1  0  0  0  0
 22 24  1  0  0  0  0
 22 59  1  6  0  0  0
 23 60  1  0  0  0  0
 23 61  1  0  0  0  0
 24 25  1  0  0  0  0
 24 62  1  0  0  0  0
 24 63  1  0  0  0  0
 25 26  2  0  0  0  0
 25 27  1  0  0  0  0
 27 28  1  0  0  0  0
 27 32  1  0  0  0  0
 28 29  1  0  0  0  0
 28 64  1  0  0  0  0
 28 65  1  0  0  0  0
 29 30  1  0  0  0  0
 29 66  1  0  0  0  0
 29 67  1  0  0  0  0
 30 31  1  0  0  0  0
 30 33  1  0  0  0  0
 31 32  1  0  0  0  0
 31 68  1  0  0  0  0
 31 69  1  0  0  0  0
 32 70  1  0  0  0  0
 32 71  1  0  0  0  0
 33 34  2  0  0  0  0
 33 38  1  0  0  0  0
 34 35  1  0  0  0  0
 34 72  1  0  0  0  0
 35 36  2  0  0  0  0
 35 73  1  0  0  0  0
 36 37  1  0  0  0  0
 36 39  1  0  0  0  0
 37 38  2  0  0  0  0
 37 74  1  0  0  0  0
 38 75  1  0  0  0  0
 39 40  2  0  0  0  0
 39 44  1  0  0  0  0
 40 41  1  0  0  0  0
 41 42  2  0  0  0  0
 41 76  1  0  0  0  0
 42 43  1  0  0  0  0
 42 77  1  0  0  0  0
 43 44  2  0  0  0  0
 43 78  1  0  0  0  0
M  CHG  1  22   1
M  END
