4qvv_ligand
 OpenBabel08222323353D

 53 54  0  0  1  0  0  0  0  0999 V2000
   62.7740 -133.2110   36.0180 N   0  0  0  0  0  0  0  0  0  0  0  0
   62.0790 -134.3540   36.1670 C   0  0  0  0  0  0  0  0  0  0  0  0
   61.9550 -135.2470   35.1010 C   0  0  0  0  0  0  0  0  0  0  0  0
   62.5580 -134.9480   33.8690 N   0  0  0  0  0  0  0  0  0  0  0  0
   63.2800 -133.7550   33.7220 C   0  0  0  0  0  0  0  0  0  0  0  0
   63.3860 -132.8810   34.7980 C   0  0  0  0  0  0  0  0  0  0  0  0
   61.4980 -134.6290   37.4040 C   0  0  0  0  0  0  0  0  0  0  0  0
   60.6550 -133.8730   37.8850 O   0  0  0  0  0  0  0  0  0  0  0  0
   61.9460 -135.7390   38.0130 N   0  0  0  0  0  0  0  0  0  0  0  0
   61.4770 -136.1430   39.3470 C   0  0  1  0  0  0  0  0  0  0  0  0
   60.7750 -137.4790   39.3030 C   0  0  0  0  0  0  0  0  0  0  0  0
   59.5630 -137.3100   38.6120 C   0  0  0  0  0  0  0  0  0  0  0  0
   59.3450 -137.9550   37.3900 C   0  0  0  0  0  0  0  0  0  0  0  0
   58.1370 -137.7940   36.7090 C   0  0  0  0  0  0  0  0  0  0  0  0
   57.1320 -136.9910   37.2440 C   0  0  0  0  0  0  0  0  0  0  0  0
   57.3420 -136.3500   38.4630 C   0  0  0  0  0  0  0  0  0  0  0  0
   58.5480 -136.5120   39.1460 C   0  0  0  0  0  0  0  0  0  0  0  0
   62.7210 -136.2880   40.2200 C   0  0  0  0  0  0  0  0  0  0  0  0
   63.7740 -136.6800   39.7180 O   0  0  0  0  0  0  0  0  0  0  0  0
   62.5800 -135.9450   41.5150 N   0  0  0  0  0  0  0  0  0  0  0  0
   63.7210 -136.0440   42.4510 C   0  0  1  0  0  0  0  0  0  0  0  0
   64.0840 -134.7320   43.1260 C   0  0  0  0  0  0  0  0  0  0  0  0
   63.8060 -133.5310   42.1860 C   0  0  0  0  0  0  0  0  0  0  0  0
   63.0150 -132.4580   42.9570 C   0  0  0  0  0  0  0  0  0  0  0  0
   65.1150 -132.9400   41.6290 C   0  0  0  0  0  0  0  0  0  0  0  0
   63.4070 -137.0650   43.5630 B   0  0  0  0  0  0  0  0  0  0  0  0
   62.1830 -136.7140   44.2260 O   0  0  0  0  0  0  0  0  0  0  0  0
   63.2850 -138.3790   43.0030 O   0  0  0  0  0  0  0  0  0  0  0  0
   61.3955 -136.1673   35.2241 H   0  0  0  0  0  0  0  0  0  0  0  0
   63.7522 -133.5158   32.7760 H   0  0  0  0  0  0  0  0  0  0  0  0
   63.9364 -131.9527   34.6960 H   0  0  0  0  0  0  0  0  0  0  0  0
   62.6204 -136.3093   37.5441 H   0  0  0  0  0  0  0  0  0  0  0  0
   60.7995 -135.3795   39.7570 H   0  0  0  0  0  0  0  0  0  0  0  0
   60.5755 -137.8298   40.3263 H   0  0  0  0  0  0  0  0  0  0  0  0
   61.4038 -138.2141   38.7794 H   0  0  0  0  0  0  0  0  0  0  0  0
   60.1201 -138.5848   36.9685 H   0  0  0  0  0  0  0  0  0  0  0  0
   57.9804 -138.2954   35.7608 H   0  0  0  0  0  0  0  0  0  0  0  0
   56.1937 -136.8659   36.7158 H   0  0  0  0  0  0  0  0  0  0  0  0
   56.5645 -135.7222   38.8831 H   0  0  0  0  0  0  0  0  0  0  0  0
   58.6985 -136.0152   40.0976 H   0  0  0  0  0  0  0  0  0  0  0  0
   61.6945 -135.6200   41.8471 H   0  0  0  0  0  0  0  0  0  0  0  0
   64.5984 -136.3985   41.8902 H   0  0  0  0  0  0  0  0  0  0  0  0
   65.1524 -134.7449   43.3874 H   0  0  0  0  0  0  0  0  0  0  0  0
   63.4839 -134.6196   44.0410 H   0  0  0  0  0  0  0  0  0  0  0  0
   63.1964 -133.8810   41.3399 H   0  0  0  0  0  0  0  0  0  0  0  0
   62.8150 -131.6031   42.2943 H   0  0  0  0  0  0  0  0  0  0  0  0
   63.6031 -132.1207   43.8232 H   0  0  0  0  0  0  0  0  0  0  0  0
   62.0620 -132.8837   43.3041 H   0  0  0  0  0  0  0  0  0  0  0  0
   65.6658 -133.7196   41.0823 H   0  0  0  0  0  0  0  0  0  0  0  0
   65.7327 -132.5691   42.4601 H   0  0  0  0  0  0  0  0  0  0  0  0
   64.8812 -132.1094   40.9468 H   0  0  0  0  0  0  0  0  0  0  0  0
   62.0088 -137.3400   44.9191 H   0  0  0  0  0  0  0  0  0  0  0  0
   63.1094 -139.0030   43.6975 H   0  0  0  0  0  0  0  0  0  0  0  0
  1  2  2  0  0  0  0
  1  6  1  0  0  0  0
  2  3  1  0  0  0  0
  2  7  1  0  0  0  0
  3  4  2  0  0  0  0
  3 29  1  0  0  0  0
  4  5  1  0  0  0  0
  5  6  2  0  0  0  0
  5 30  1  0  0  0  0
  6 31  1  0  0  0  0
  7  8  2  0  0  0  0
  7  9  1  0  0  0  0
  9 10  1  0  0  0  0
  9 32  1  0  0  0  0
 10 11  1  0  0  0  0
 10 18  1  0  0  0  0
 10 33  1  1  0  0  0
 11 12  1  0  0  0  0
 11 34  1  0  0  0  0
 11 35  1  0  0  0  0
 12 13  2  0  0  0  0
 12 17  1  0  0  0  0
 13 14  1  0  0  0  0
 13 36  1  0  0  0  0
 14 15  2  0  0  0  0
 14 37  1  0  0  0  0
 15 16  1  0  0  0  0
 15 38  1  0  0  0  0
 16 17  2  0  0  0  0
 16 39  1  0  0  0  0
 17 40  1  0  0  0  0
 18 19  2  0  0  0  0
 18 20  1  0  0  0  0
 20 21  1  0  0  0  0
 20 41  1  0  0  0  0
 21 22  1  0  0  0  0
 21 26  1  0  0  0  0
 21 42  1  6  0  0  0
 22 23  1  0  0  0  0
 22 43  1  0  0  0  0
 22 44  1  0  0  0  0
 23 24  1  0  0  0  0
 23 25  1  0  0  0  0
 23 45  1  0  0  0  0
 24 46  1  0  0  0  0
 24 47  1  0  0  0  0
 24 48  1  0  0  0  0
 25 49  1  0  0  0  0
 25 50  1  0  0  0  0
 25 51  1  0  0  0  0
 26 27  1  0  0  0  0
 26 28  1  0  0  0  0
 27 52  1  0  0  0  0
 28 53  1  0  0  0  0
M  END
