4qvw_ligand
 OpenBabel08222323353D

 53 54  0  0  1  0  0  0  0  0999 V2000
   62.3910 -133.0840   36.0090 N   0  0  0  0  0  0  0  0  0  0  0  0
   61.8510 -134.2920   36.2460 C   0  0  0  0  0  0  0  0  0  0  0  0
   61.9000 -135.2870   35.2700 C   0  0  0  0  0  0  0  0  0  0  0  0
   62.5100 -135.0200   34.0370 N   0  0  0  0  0  0  0  0  0  0  0  0
   63.0680 -133.7570   33.7940 C   0  0  0  0  0  0  0  0  0  0  0  0
   63.0060 -132.7840   34.7840 C   0  0  0  0  0  0  0  0  0  0  0  0
   61.2650 -134.5220   37.4850 C   0  0  0  0  0  0  0  0  0  0  0  0
   60.4910 -133.6980   37.9720 O   0  0  0  0  0  0  0  0  0  0  0  0
   61.6370 -135.6610   38.0930 N   0  0  0  0  0  0  0  0  0  0  0  0
   61.1770 -136.0150   39.4410 C   0  0  1  0  0  0  0  0  0  0  0  0
   60.5160 -137.3720   39.4580 C   0  0  0  0  0  0  0  0  0  0  0  0
   59.3150 -137.2430   38.7400 C   0  0  0  0  0  0  0  0  0  0  0  0
   59.1140 -137.9470   37.5500 C   0  0  0  0  0  0  0  0  0  0  0  0
   57.9180 -137.8140   36.8460 C   0  0  0  0  0  0  0  0  0  0  0  0
   56.9110 -136.9780   37.3220 C   0  0  0  0  0  0  0  0  0  0  0  0
   57.1050 -136.2780   38.5060 C   0  0  0  0  0  0  0  0  0  0  0  0
   58.2970 -136.4130   39.2130 C   0  0  0  0  0  0  0  0  0  0  0  0
   62.4320 -136.0360   40.3070 C   0  0  0  0  0  0  0  0  0  0  0  0
   63.5460 -136.0350   39.7820 O   0  0  0  0  0  0  0  0  0  0  0  0
   62.2320 -136.0080   41.6310 N   0  0  0  0  0  0  0  0  0  0  0  0
   63.3830 -135.9950   42.5540 C   0  0  1  0  0  0  0  0  0  0  0  0
   63.5520 -134.6570   43.2430 C   0  0  0  0  0  0  0  0  0  0  0  0
   63.3530 -133.4860   42.2660 C   0  0  0  0  0  0  0  0  0  0  0  0
   63.1570 -132.2140   43.1050 C   0  0  0  0  0  0  0  0  0  0  0  0
   64.5740 -133.3320   41.3440 C   0  0  0  0  0  0  0  0  0  0  0  0
   63.2280 -137.0390   43.6740 B   0  0  0  0  0  0  0  0  0  0  0  0
   61.9010 -137.0100   44.2190 O   0  0  0  0  0  0  0  0  0  0  0  0
   63.5200 -138.3450   43.1690 O   0  0  0  0  0  0  0  0  0  0  0  0
   61.4683 -136.2622   35.4642 H   0  0  0  0  0  0  0  0  0  0  0  0
   63.5429 -133.5418   32.8436 H   0  0  0  0  0  0  0  0  0  0  0  0
   63.4293 -131.8011   34.6114 H   0  0  0  0  0  0  0  0  0  0  0  0
   62.2480 -136.2888   37.6107 H   0  0  0  0  0  0  0  0  0  0  0  0
   60.4673 -135.2601   39.8104 H   0  0  0  0  0  0  0  0  0  0  0  0
   60.3079 -137.6798   40.4933 H   0  0  0  0  0  0  0  0  0  0  0  0
   61.1670 -138.1173   38.9777 H   0  0  0  0  0  0  0  0  0  0  0  0
   59.8922 -138.6002   37.1721 H   0  0  0  0  0  0  0  0  0  0  0  0
   57.7712 -138.3640   35.9235 H   0  0  0  0  0  0  0  0  0  0  0  0
   55.9824 -136.8743   36.7724 H   0  0  0  0  0  0  0  0  0  0  0  0
   56.3257 -135.6244   38.8809 H   0  0  0  0  0  0  0  0  0  0  0  0
   58.4359 -135.8682   40.1398 H   0  0  0  0  0  0  0  0  0  0  0  0
   61.3006 -135.9959   41.9948 H   0  0  0  0  0  0  0  0  0  0  0  0
   64.2967 -136.2168   41.9832 H   0  0  0  0  0  0  0  0  0  0  0  0
   64.5654 -134.5995   43.6668 H   0  0  0  0  0  0  0  0  0  0  0  0
   62.8111 -134.5763   44.0520 H   0  0  0  0  0  0  0  0  0  0  0  0
   62.4590 -133.6662   41.6509 H   0  0  0  0  0  0  0  0  0  0  0  0
   63.0112 -131.3527   42.4365 H   0  0  0  0  0  0  0  0  0  0  0  0
   64.0464 -132.0464   43.7302 H   0  0  0  0  0  0  0  0  0  0  0  0
   62.2731 -132.3321   43.7490 H   0  0  0  0  0  0  0  0  0  0  0  0
   64.7026 -134.2487   40.7497 H   0  0  0  0  0  0  0  0  0  0  0  0
   65.4739 -133.1605   41.9528 H   0  0  0  0  0  0  0  0  0  0  0  0
   64.4189 -132.4768   40.6698 H   0  0  0  0  0  0  0  0  0  0  0  0
   61.8364 -137.6411   44.9261 H   0  0  0  0  0  0  0  0  0  0  0  0
   63.4572 -138.9776   43.8750 H   0  0  0  0  0  0  0  0  0  0  0  0
  1  2  2  0  0  0  0
  1  6  1  0  0  0  0
  2  3  1  0  0  0  0
  2  7  1  0  0  0  0
  3  4  2  0  0  0  0
  3 29  1  0  0  0  0
  4  5  1  0  0  0  0
  5  6  2  0  0  0  0
  5 30  1  0  0  0  0
  6 31  1  0  0  0  0
  7  8  2  0  0  0  0
  7  9  1  0  0  0  0
  9 10  1  0  0  0  0
  9 32  1  0  0  0  0
 10 11  1  0  0  0  0
 10 18  1  0  0  0  0
 10 33  1  1  0  0  0
 11 12  1  0  0  0  0
 11 34  1  0  0  0  0
 11 35  1  0  0  0  0
 12 13  2  0  0  0  0
 12 17  1  0  0  0  0
 13 14  1  0  0  0  0
 13 36  1  0  0  0  0
 14 15  2  0  0  0  0
 14 37  1  0  0  0  0
 15 16  1  0  0  0  0
 15 38  1  0  0  0  0
 16 17  2  0  0  0  0
 16 39  1  0  0  0  0
 17 40  1  0  0  0  0
 18 19  2  0  0  0  0
 18 20  1  0  0  0  0
 20 21  1  0  0  0  0
 20 41  1  0  0  0  0
 21 22  1  0  0  0  0
 21 26  1  0  0  0  0
 21 42  1  6  0  0  0
 22 23  1  0  0  0  0
 22 43  1  0  0  0  0
 22 44  1  0  0  0  0
 23 24  1  0  0  0  0
 23 25  1  0  0  0  0
 23 45  1  0  0  0  0
 24 46  1  0  0  0  0
 24 47  1  0  0  0  0
 24 48  1  0  0  0  0
 25 49  1  0  0  0  0
 25 50  1  0  0  0  0
 25 51  1  0  0  0  0
 26 27  1  0  0  0  0
 26 28  1  0  0  0  0
 27 52  1  0  0  0  0
 28 53  1  0  0  0  0
M  END
