4qvy_ligand
 OpenBabel08222323353D

 53 54  0  0  1  0  0  0  0  0999 V2000
   62.2600 -133.2010   35.8990 N   0  0  0  0  0  0  0  0  0  0  0  0
   61.8960 -134.4670   36.1690 C   0  0  0  0  0  0  0  0  0  0  0  0
   62.1240 -135.4720   35.2290 C   0  0  0  0  0  0  0  0  0  0  0  0
   62.7240 -135.1600   34.0000 N   0  0  0  0  0  0  0  0  0  0  0  0
   63.0960 -133.8380   33.7240 C   0  0  0  0  0  0  0  0  0  0  0  0
   62.8610 -132.8550   34.6780 C   0  0  0  0  0  0  0  0  0  0  0  0
   61.3150 -134.7330   37.4060 C   0  0  0  0  0  0  0  0  0  0  0  0
   60.5610 -133.9120   37.9260 O   0  0  0  0  0  0  0  0  0  0  0  0
   61.6770 -135.8920   37.9830 N   0  0  0  0  0  0  0  0  0  0  0  0
   61.2250 -136.2710   39.3270 C   0  0  1  0  0  0  0  0  0  0  0  0
   60.5270 -137.6100   39.3260 C   0  0  0  0  0  0  0  0  0  0  0  0
   59.3170 -137.4240   38.6420 C   0  0  0  0  0  0  0  0  0  0  0  0
   59.1170 -137.9810   37.3750 C   0  0  0  0  0  0  0  0  0  0  0  0
   57.9080 -137.7920   36.7050 C   0  0  0  0  0  0  0  0  0  0  0  0
   56.8920 -137.0470   37.2970 C   0  0  0  0  0  0  0  0  0  0  0  0
   57.0860 -136.4920   38.5590 C   0  0  0  0  0  0  0  0  0  0  0  0
   58.2910 -136.6830   39.2290 C   0  0  0  0  0  0  0  0  0  0  0  0
   62.5010 -136.3850   40.1470 C   0  0  0  0  0  0  0  0  0  0  0  0
   63.5670 -136.6390   39.5860 O   0  0  0  0  0  0  0  0  0  0  0  0
   62.3830 -136.1500   41.4640 N   0  0  0  0  0  0  0  0  0  0  0  0
   63.5680 -136.2600   42.3370 C   0  0  1  0  0  0  0  0  0  0  0  0
   64.1190 -134.9330   42.8460 C   0  0  0  0  0  0  0  0  0  0  0  0
   63.5200 -133.7020   42.1180 C   0  0  0  0  0  0  0  0  0  0  0  0
   62.5540 -132.9420   43.0510 C   0  0  0  0  0  0  0  0  0  0  0  0
   64.6540 -132.7570   41.6750 C   0  0  0  0  0  0  0  0  0  0  0  0
   63.2480 -137.1440   43.5520 B   0  0  0  0  0  0  0  0  0  0  0  0
   62.0340 -136.7000   44.1830 O   0  0  0  0  0  0  0  0  0  0  0  0
   63.1190 -138.5110   43.1460 O   0  0  0  0  0  0  0  0  0  0  0  0
   61.8375 -136.4942   35.4482 H   0  0  0  0  0  0  0  0  0  0  0  0
   63.5613 -133.5849   32.7782 H   0  0  0  0  0  0  0  0  0  0  0  0
   63.1403 -131.8264   34.4805 H   0  0  0  0  0  0  0  0  0  0  0  0
   62.2741 -136.5167   37.4798 H   0  0  0  0  0  0  0  0  0  0  0  0
   60.5549 -135.5026   39.7399 H   0  0  0  0  0  0  0  0  0  0  0  0
   60.3343 -137.9396   40.3576 H   0  0  0  0  0  0  0  0  0  0  0  0
   61.1441 -138.3606   38.8105 H   0  0  0  0  0  0  0  0  0  0  0  0
   59.9054 -138.5626   36.9111 H   0  0  0  0  0  0  0  0  0  0  0  0
   57.7597 -138.2256   35.7226 H   0  0  0  0  0  0  0  0  0  0  0  0
   55.9524 -136.8994   36.7769 H   0  0  0  0  0  0  0  0  0  0  0  0
   56.2968 -135.9098   39.0209 H   0  0  0  0  0  0  0  0  0  0  0  0
   58.4332 -136.2530   40.2138 H   0  0  0  0  0  0  0  0  0  0  0  0
   61.4954 -135.9014   41.8518 H   0  0  0  0  0  0  0  0  0  0  0  0
   64.3639 -136.7648   41.7699 H   0  0  0  0  0  0  0  0  0  0  0  0
   65.2093 -134.9285   42.7005 H   0  0  0  0  0  0  0  0  0  0  0  0
   63.8919 -134.8489   43.9190 H   0  0  0  0  0  0  0  0  0  0  0  0
   62.9673 -134.0446   41.2308 H   0  0  0  0  0  0  0  0  0  0  0  0
   62.1387 -132.0730   42.5196 H   0  0  0  0  0  0  0  0  0  0  0  0
   63.0990 -132.6000   43.9432 H   0  0  0  0  0  0  0  0  0  0  0  0
   61.7357 -133.6111   43.3552 H   0  0  0  0  0  0  0  0  0  0  0  0
   65.3432 -133.2979   41.0098 H   0  0  0  0  0  0  0  0  0  0  0  0
   65.2020 -132.4016   42.5601 H   0  0  0  0  0  0  0  0  0  0  0  0
   64.2263 -131.8970   41.1388 H   0  0  0  0  0  0  0  0  0  0  0  0
   61.8603 -137.2378   44.9466 H   0  0  0  0  0  0  0  0  0  0  0  0
   62.9470 -139.0516   43.9080 H   0  0  0  0  0  0  0  0  0  0  0  0
  1  2  2  0  0  0  0
  1  6  1  0  0  0  0
  2  3  1  0  0  0  0
  2  7  1  0  0  0  0
  3  4  2  0  0  0  0
  3 29  1  0  0  0  0
  4  5  1  0  0  0  0
  5  6  2  0  0  0  0
  5 30  1  0  0  0  0
  6 31  1  0  0  0  0
  7  8  2  0  0  0  0
  7  9  1  0  0  0  0
  9 10  1  0  0  0  0
  9 32  1  0  0  0  0
 10 11  1  0  0  0  0
 10 18  1  0  0  0  0
 10 33  1  1  0  0  0
 11 12  1  0  0  0  0
 11 34  1  0  0  0  0
 11 35  1  0  0  0  0
 12 13  2  0  0  0  0
 12 17  1  0  0  0  0
 13 14  1  0  0  0  0
 13 36  1  0  0  0  0
 14 15  2  0  0  0  0
 14 37  1  0  0  0  0
 15 16  1  0  0  0  0
 15 38  1  0  0  0  0
 16 17  2  0  0  0  0
 16 39  1  0  0  0  0
 17 40  1  0  0  0  0
 18 19  2  0  0  0  0
 18 20  1  0  0  0  0
 20 21  1  0  0  0  0
 20 41  1  0  0  0  0
 21 22  1  0  0  0  0
 21 26  1  0  0  0  0
 21 42  1  6  0  0  0
 22 23  1  0  0  0  0
 22 43  1  0  0  0  0
 22 44  1  0  0  0  0
 23 24  1  0  0  0  0
 23 25  1  0  0  0  0
 23 45  1  0  0  0  0
 24 46  1  0  0  0  0
 24 47  1  0  0  0  0
 24 48  1  0  0  0  0
 25 49  1  0  0  0  0
 25 50  1  0  0  0  0
 25 51  1  0  0  0  0
 26 27  1  0  0  0  0
 26 28  1  0  0  0  0
 27 52  1  0  0  0  0
 28 53  1  0  0  0  0
M  END
