4qw1_ligand
 OpenBabel08222323353D

 53 54  0  0  1  0  0  0  0  0999 V2000
   62.3880 -132.9490   35.9420 N   0  0  0  0  0  0  0  0  0  0  0  0
   61.7320 -134.1030   36.1660 C   0  0  0  0  0  0  0  0  0  0  0  0
   61.5690 -135.0340   35.1430 C   0  0  0  0  0  0  0  0  0  0  0  0
   62.0960 -134.7680   33.8700 N   0  0  0  0  0  0  0  0  0  0  0  0
   62.7790 -133.5660   33.6360 C   0  0  0  0  0  0  0  0  0  0  0  0
   62.9240 -132.6510   34.6760 C   0  0  0  0  0  0  0  0  0  0  0  0
   61.2160 -134.3540   37.4290 C   0  0  0  0  0  0  0  0  0  0  0  0
   60.4460 -133.5510   37.9560 O   0  0  0  0  0  0  0  0  0  0  0  0
   61.6160 -135.5050   37.9920 N   0  0  0  0  0  0  0  0  0  0  0  0
   61.1890 -135.8950   39.3420 C   0  0  1  0  0  0  0  0  0  0  0  0
   60.5320 -137.2570   39.3340 C   0  0  0  0  0  0  0  0  0  0  0  0
   59.3100 -137.1180   38.6470 C   0  0  0  0  0  0  0  0  0  0  0  0
   59.1000 -137.7540   37.4200 C   0  0  0  0  0  0  0  0  0  0  0  0
   57.8840 -137.6120   36.7520 C   0  0  0  0  0  0  0  0  0  0  0  0
   56.8650 -136.8400   37.3010 C   0  0  0  0  0  0  0  0  0  0  0  0
   57.0650 -136.2070   38.5230 C   0  0  0  0  0  0  0  0  0  0  0  0
   58.2790 -136.3500   39.1940 C   0  0  0  0  0  0  0  0  0  0  0  0
   62.4480 -135.9320   40.2010 C   0  0  0  0  0  0  0  0  0  0  0  0
   63.5570 -136.0030   39.6760 O   0  0  0  0  0  0  0  0  0  0  0  0
   62.2540 -135.8300   41.5230 N   0  0  0  0  0  0  0  0  0  0  0  0
   63.3980 -135.8350   42.4520 C   0  0  1  0  0  0  0  0  0  0  0  0
   63.6150 -134.4880   43.1130 C   0  0  0  0  0  0  0  0  0  0  0  0
   63.4390 -133.3320   42.1030 C   0  0  0  0  0  0  0  0  0  0  0  0
   62.9700 -132.0870   42.8710 C   0  0  0  0  0  0  0  0  0  0  0  0
   64.7480 -133.0330   41.3520 C   0  0  0  0  0  0  0  0  0  0  0  0
   63.1700 -136.8580   43.5790 B   0  0  0  0  0  0  0  0  0  0  0  0
   61.9360 -136.5690   44.2590 O   0  0  0  0  0  0  0  0  0  0  0  0
   63.1170 -138.1860   43.0470 O   0  0  0  0  0  0  0  0  0  0  0  0
   61.0373 -135.9601   35.3294 H   0  0  0  0  0  0  0  0  0  0  0  0
   63.1898 -133.3512   32.6561 H   0  0  0  0  0  0  0  0  0  0  0  0
   63.4463 -131.7156   34.5110 H   0  0  0  0  0  0  0  0  0  0  0  0
   62.2211 -136.1133   37.4784 H   0  0  0  0  0  0  0  0  0  0  0  0
   60.4806 -135.1533   39.7395 H   0  0  0  0  0  0  0  0  0  0  0  0
   60.3500 -137.5953   40.3648 H   0  0  0  0  0  0  0  0  0  0  0  0
   61.1756 -137.9844   38.8176 H   0  0  0  0  0  0  0  0  0  0  0  0
   59.8863 -138.3606   36.9855 H   0  0  0  0  0  0  0  0  0  0  0  0
   57.7319 -138.1061   35.7992 H   0  0  0  0  0  0  0  0  0  0  0  0
   55.9209 -136.7326   36.7794 H   0  0  0  0  0  0  0  0  0  0  0  0
   56.2761 -135.6016   38.9545 H   0  0  0  0  0  0  0  0  0  0  0  0
   58.4243 -135.8602   40.1500 H   0  0  0  0  0  0  0  0  0  0  0  0
   61.3243 -135.7497   41.8825 H   0  0  0  0  0  0  0  0  0  0  0  0
   64.3060 -136.1035   41.8921 H   0  0  0  0  0  0  0  0  0  0  0  0
   64.6341 -134.4513   43.5255 H   0  0  0  0  0  0  0  0  0  0  0  0
   62.8853 -134.3667   43.9271 H   0  0  0  0  0  0  0  0  0  0  0  0
   62.6707 -133.6142   41.3681 H   0  0  0  0  0  0  0  0  0  0  0  0
   62.8385 -131.2508   42.1685 H   0  0  0  0  0  0  0  0  0  0  0  0
   63.7229 -131.8166   43.6259 H   0  0  0  0  0  0  0  0  0  0  0  0
   62.0127 -132.3020   43.3684 H   0  0  0  0  0  0  0  0  0  0  0  0
   65.0717 -133.9321   40.8072 H   0  0  0  0  0  0  0  0  0  0  0  0
   65.5259 -132.7412   42.0729 H   0  0  0  0  0  0  0  0  0  0  0  0
   64.5823 -132.2120   40.6389 H   0  0  0  0  0  0  0  0  0  0  0  0
   61.8124 -137.1909   44.9664 H   0  0  0  0  0  0  0  0  0  0  0  0
   62.9915 -138.8053   43.7563 H   0  0  0  0  0  0  0  0  0  0  0  0
  1  2  2  0  0  0  0
  1  6  1  0  0  0  0
  2  3  1  0  0  0  0
  2  7  1  0  0  0  0
  3  4  2  0  0  0  0
  3 29  1  0  0  0  0
  4  5  1  0  0  0  0
  5  6  2  0  0  0  0
  5 30  1  0  0  0  0
  6 31  1  0  0  0  0
  7  8  2  0  0  0  0
  7  9  1  0  0  0  0
  9 10  1  0  0  0  0
  9 32  1  0  0  0  0
 10 11  1  0  0  0  0
 10 18  1  0  0  0  0
 10 33  1  1  0  0  0
 11 12  1  0  0  0  0
 11 34  1  0  0  0  0
 11 35  1  0  0  0  0
 12 13  2  0  0  0  0
 12 17  1  0  0  0  0
 13 14  1  0  0  0  0
 13 36  1  0  0  0  0
 14 15  2  0  0  0  0
 14 37  1  0  0  0  0
 15 16  1  0  0  0  0
 15 38  1  0  0  0  0
 16 17  2  0  0  0  0
 16 39  1  0  0  0  0
 17 40  1  0  0  0  0
 18 19  2  0  0  0  0
 18 20  1  0  0  0  0
 20 21  1  0  0  0  0
 20 41  1  0  0  0  0
 21 22  1  0  0  0  0
 21 26  1  0  0  0  0
 21 42  1  6  0  0  0
 22 23  1  0  0  0  0
 22 43  1  0  0  0  0
 22 44  1  0  0  0  0
 23 24  1  0  0  0  0
 23 25  1  0  0  0  0
 23 45  1  0  0  0  0
 24 46  1  0  0  0  0
 24 47  1  0  0  0  0
 24 48  1  0  0  0  0
 25 49  1  0  0  0  0
 25 50  1  0  0  0  0
 25 51  1  0  0  0  0
 26 27  1  0  0  0  0
 26 28  1  0  0  0  0
 27 52  1  0  0  0  0
 28 53  1  0  0  0  0
M  END
