4qw3_ligand
 OpenBabel08222323353D

 53 54  0  0  1  0  0  0  0  0999 V2000
   62.9770 -133.0020   36.1800 N   0  0  0  0  0  0  0  0  0  0  0  0
   62.4900 -134.2160   36.4910 C   0  0  0  0  0  0  0  0  0  0  0  0
   62.5010 -135.2390   35.5460 C   0  0  0  0  0  0  0  0  0  0  0  0
   63.0250 -135.0020   34.2710 N   0  0  0  0  0  0  0  0  0  0  0  0
   63.5300 -133.7370   33.9550 C   0  0  0  0  0  0  0  0  0  0  0  0
   63.5050 -132.7320   34.9130 C   0  0  0  0  0  0  0  0  0  0  0  0
   61.9830 -134.4160   37.7700 C   0  0  0  0  0  0  0  0  0  0  0  0
   61.4350 -133.4890   38.3640 O   0  0  0  0  0  0  0  0  0  0  0  0
   62.1440 -135.6450   38.2930 N   0  0  0  0  0  0  0  0  0  0  0  0
   61.6910 -135.9480   39.6570 C   0  0  1  0  0  0  0  0  0  0  0  0
   60.9790 -137.2740   39.7340 C   0  0  0  0  0  0  0  0  0  0  0  0
   59.8300 -137.1430   38.9360 C   0  0  0  0  0  0  0  0  0  0  0  0
   59.7010 -137.8680   37.7480 C   0  0  0  0  0  0  0  0  0  0  0  0
   58.5590 -137.7350   36.9620 C   0  0  0  0  0  0  0  0  0  0  0  0
   57.5340 -136.8820   37.3550 C   0  0  0  0  0  0  0  0  0  0  0  0
   57.6530 -136.1600   38.5380 C   0  0  0  0  0  0  0  0  0  0  0  0
   58.7930 -136.2910   39.3260 C   0  0  0  0  0  0  0  0  0  0  0  0
   62.9370 -135.9940   40.5240 C   0  0  0  0  0  0  0  0  0  0  0  0
   64.0460 -136.1450   40.0120 O   0  0  0  0  0  0  0  0  0  0  0  0
   62.7190 -135.8300   41.8360 N   0  0  0  0  0  0  0  0  0  0  0  0
   63.8380 -135.8190   42.7840 C   0  0  1  0  0  0  0  0  0  0  0  0
   63.9000 -134.4920   43.5080 C   0  0  0  0  0  0  0  0  0  0  0  0
   63.9550 -133.3430   42.4810 C   0  0  0  0  0  0  0  0  0  0  0  0
   63.8120 -132.0150   43.2350 C   0  0  0  0  0  0  0  0  0  0  0  0
   65.2710 -133.3670   41.6860 C   0  0  0  0  0  0  0  0  0  0  0  0
   63.6930 -136.9310   43.8330 B   0  0  0  0  0  0  0  0  0  0  0  0
   62.4230 -136.8380   44.4840 O   0  0  0  0  0  0  0  0  0  0  0  0
   63.8120 -138.2210   43.2270 O   0  0  0  0  0  0  0  0  0  0  0  0
   62.1046 -136.2160   35.7979 H   0  0  0  0  0  0  0  0  0  0  0  0
   63.9379 -133.5423   32.9697 H   0  0  0  0  0  0  0  0  0  0  0  0
   63.8915 -131.7462   34.6809 H   0  0  0  0  0  0  0  0  0  0  0  0
   62.5776 -136.3613   37.7462 H   0  0  0  0  0  0  0  0  0  0  0  0
   61.0138 -135.1550   40.0070 H   0  0  0  0  0  0  0  0  0  0  0  0
   60.6987 -137.4976   40.7739 H   0  0  0  0  0  0  0  0  0  0  0  0
   61.6235 -138.0771   39.3472 H   0  0  0  0  0  0  0  0  0  0  0  0
   60.4945 -138.5377   37.4366 H   0  0  0  0  0  0  0  0  0  0  0  0
   58.4690 -138.2986   36.0404 H   0  0  0  0  0  0  0  0  0  0  0  0
   56.6457 -136.7800   36.7421 H   0  0  0  0  0  0  0  0  0  0  0  0
   56.8559 -135.4936   38.8471 H   0  0  0  0  0  0  0  0  0  0  0  0
   58.8770 -135.7282   40.2486 H   0  0  0  0  0  0  0  0  0  0  0  0
   61.7843 -135.7140   42.1719 H   0  0  0  0  0  0  0  0  0  0  0  0
   64.7788 -135.9780   42.2367 H   0  0  0  0  0  0  0  0  0  0  0  0
   64.8001 -134.4615   44.1396 H   0  0  0  0  0  0  0  0  0  0  0  0
   63.0058 -134.3769   44.1382 H   0  0  0  0  0  0  0  0  0  0  0  0
   63.1171 -133.4514   41.7766 H   0  0  0  0  0  0  0  0  0  0  0  0
   63.8488 -131.1809   42.5188 H   0  0  0  0  0  0  0  0  0  0  0  0
   64.6344 -131.9136   43.9584 H   0  0  0  0  0  0  0  0  0  0  0  0
   62.8502 -131.9979   43.7685 H   0  0  0  0  0  0  0  0  0  0  0  0
   65.3590 -134.3243   41.1514 H   0  0  0  0  0  0  0  0  0  0  0  0
   66.1191 -133.2538   42.3773 H   0  0  0  0  0  0  0  0  0  0  0  0
   65.2763 -132.5402   40.9605 H   0  0  0  0  0  0  0  0  0  0  0  0
   62.3596 -137.5125   45.1500 H   0  0  0  0  0  0  0  0  0  0  0  0
   63.7447 -138.8916   43.8965 H   0  0  0  0  0  0  0  0  0  0  0  0
  1  2  2  0  0  0  0
  1  6  1  0  0  0  0
  2  3  1  0  0  0  0
  2  7  1  0  0  0  0
  3  4  2  0  0  0  0
  3 29  1  0  0  0  0
  4  5  1  0  0  0  0
  5  6  2  0  0  0  0
  5 30  1  0  0  0  0
  6 31  1  0  0  0  0
  7  8  2  0  0  0  0
  7  9  1  0  0  0  0
  9 10  1  0  0  0  0
  9 32  1  0  0  0  0
 10 11  1  0  0  0  0
 10 18  1  0  0  0  0
 10 33  1  1  0  0  0
 11 12  1  0  0  0  0
 11 34  1  0  0  0  0
 11 35  1  0  0  0  0
 12 13  2  0  0  0  0
 12 17  1  0  0  0  0
 13 14  1  0  0  0  0
 13 36  1  0  0  0  0
 14 15  2  0  0  0  0
 14 37  1  0  0  0  0
 15 16  1  0  0  0  0
 15 38  1  0  0  0  0
 16 17  2  0  0  0  0
 16 39  1  0  0  0  0
 17 40  1  0  0  0  0
 18 19  2  0  0  0  0
 18 20  1  0  0  0  0
 20 21  1  0  0  0  0
 20 41  1  0  0  0  0
 21 22  1  0  0  0  0
 21 26  1  0  0  0  0
 21 42  1  6  0  0  0
 22 23  1  0  0  0  0
 22 43  1  0  0  0  0
 22 44  1  0  0  0  0
 23 24  1  0  0  0  0
 23 25  1  0  0  0  0
 23 45  1  0  0  0  0
 24 46  1  0  0  0  0
 24 47  1  0  0  0  0
 24 48  1  0  0  0  0
 25 49  1  0  0  0  0
 25 50  1  0  0  0  0
 25 51  1  0  0  0  0
 26 27  1  0  0  0  0
 26 28  1  0  0  0  0
 27 52  1  0  0  0  0
 28 53  1  0  0  0  0
M  END
