4qwf_ligand
 OpenBabel08222323353D

114116  0  0  1  0  0  0  0  0999 V2000
   59.2930 -135.1120   31.5970 C   0  0  0  0  0  0  0  0  0  0  0  0
   59.8510 -134.1050   31.1590 O   0  0  0  0  0  0  0  0  0  0  0  0
   58.9980 -136.3480   30.7250 C   0  0  0  0  0  0  0  0  0  0  0  0
   58.5530 -136.0620   29.3360 N   0  3  0  0  0  0  0  0  0  0  0  0
   58.4800 -134.6030   27.0670 O   0  0  0  0  0  0  0  0  0  0  0  0
   59.7100 -135.9630   28.4080 C   0  0  0  0  0  0  0  0  0  0  0  0
   57.6200 -134.9030   29.2360 C   0  0  0  0  0  0  0  0  0  0  0  0
   59.1530 -135.8440   27.0300 C   0  0  0  0  0  0  0  0  0  0  0  0
   57.2540 -134.6530   27.8460 C   0  0  0  0  0  0  0  0  0  0  0  0
   58.9100 -135.2720   32.8660 N   0  0  0  0  0  0  0  0  0  0  0  0
   59.1130 -134.2630   33.9020 C   0  0  2  0  0  0  0  0  0  0  0  0
   60.3170 -134.7030   34.7120 C   0  0  0  0  0  0  0  0  0  0  0  0
   60.5970 -135.8970   34.8040 O   0  0  0  0  0  0  0  0  0  0  0  0
   57.9310 -134.3000   34.8300 C   0  0  0  0  0  0  0  0  0  0  0  0
   57.1310 -133.0440   34.5500 C   0  0  0  0  0  0  0  0  0  0  0  0
   55.8930 -133.0950   35.2410 C   0  0  0  0  0  0  0  0  0  0  0  0
   54.8090 -132.3870   34.7190 C   0  0  0  0  0  0  0  0  0  0  0  0
   55.7020 -133.8010   36.4370 C   0  0  0  0  0  0  0  0  0  0  0  0
   53.5730 -132.3960   35.3610 C   0  0  0  0  0  0  0  0  0  0  0  0
   54.4670 -133.8130   37.0800 C   0  0  0  0  0  0  0  0  0  0  0  0
   53.3990 -133.1090   36.5420 C   0  0  0  0  0  0  0  0  0  0  0  0
   60.9860 -133.7340   35.3350 N   0  0  0  0  0  0  0  0  0  0  0  0
   62.1270 -134.0830   36.1820 C   0  0  2  0  0  0  0  0  0  0  0  0
   61.6050 -134.2540   37.5990 C   0  0  0  0  0  0  0  0  0  0  0  0
   60.8280 -133.4290   38.0820 O   0  0  0  0  0  0  0  0  0  0  0  0
   63.1490 -132.9860   36.1860 C   0  0  0  0  0  0  0  0  0  0  0  0
   63.8880 -133.0980   34.8410 C   0  0  0  0  0  0  0  0  0  0  0  0
   64.6140 -131.7780   34.5490 C   0  0  0  0  0  0  0  0  0  0  0  0
   64.8970 -134.2550   34.8760 C   0  0  0  0  0  0  0  0  0  0  0  0
   62.0520 -135.3570   38.2180 N   0  0  0  0  0  0  0  0  0  0  0  0
   61.6920 -135.6790   39.5990 C   0  0  2  0  0  0  0  0  0  0  0  0
   62.9780 -135.6640   40.4030 C   0  0  0  0  0  0  0  0  0  0  0  0
   64.0720 -135.6840   39.8380 O   0  0  0  0  0  0  0  0  0  0  0  0
   61.0530 -137.0270   39.6920 C   0  0  0  0  0  0  0  0  0  0  0  0
   59.7430 -136.8460   39.2420 C   0  0  0  0  0  0  0  0  0  0  0  0
   59.3920 -137.2020   37.9410 C   0  0  0  0  0  0  0  0  0  0  0  0
   58.7780 -136.3080   40.0930 C   0  0  0  0  0  0  0  0  0  0  0  0
   58.0860 -137.0250   37.4940 C   0  0  0  0  0  0  0  0  0  0  0  0
   57.4730 -136.1280   39.6450 C   0  0  0  0  0  0  0  0  0  0  0  0
   57.1260 -136.4890   38.3470 C   0  0  0  0  0  0  0  0  0  0  0  0
   62.7940 -135.6070   41.7260 N   0  0  0  0  0  0  0  0  0  0  0  0
   63.8970 -135.4440   42.6680 C   0  0  1  0  0  0  0  0  0  0  0  0
   63.6850 -134.0260   43.1690 C   0  0  0  0  0  0  0  0  0  0  0  0
   64.8300 -133.0800   42.7470 C   0  0  0  0  0  0  0  0  0  0  0  0
   64.4410 -131.6610   43.1970 C   0  0  0  0  0  0  0  0  0  0  0  0
   65.0760 -133.0670   41.2290 C   0  0  0  0  0  0  0  0  0  0  0  0
   63.8100 -136.3980   43.8840 C   0  0  2  0  0  0  0  0  0  0  0  0
   64.1820 -137.9240   43.6280 C   0  0  2  0  0  0  0  0  0  0  0  0
   65.3990 -138.0120   42.6620 C   0  0  0  0  0  0  0  0  0  0  0  0
   62.9260 -138.5650   42.9890 C   0  0  0  0  0  0  0  0  0  0  0  0
   63.3380 -139.4750   41.9610 O   0  0  0  0  0  0  0  0  0  0  0  0
   62.4870 -136.3120   44.4150 O   0  0  0  0  0  0  0  0  0  0  0  0
   58.2076 -136.9310   31.2204 H   0  0  0  0  0  0  0  0  0  0  0  0
   59.9170 -136.9498   30.6688 H   0  0  0  0  0  0  0  0  0  0  0  0
   58.0230 -136.8668   29.0402 H   0  0  0  0  0  0  0  0  0  0  0  0
   60.3356 -136.8644   28.4863 H   0  0  0  0  0  0  0  0  0  0  0  0
   60.3135 -135.0757   28.6496 H   0  0  0  0  0  0  0  0  0  0  0  0
   58.1106 -134.0082   29.6465 H   0  0  0  0  0  0  0  0  0  0  0  0
   56.7105 -135.1208   29.8151 H   0  0  0  0  0  0  0  0  0  0  0  0
   59.9559 -135.8364   26.2781 H   0  0  0  0  0  0  0  0  0  0  0  0
   58.4552 -136.6662   26.8130 H   0  0  0  0  0  0  0  0  0  0  0  0
   56.6088 -135.4639   27.4771 H   0  0  0  0  0  0  0  0  0  0  0  0
   56.7202 -133.6945   27.7660 H   0  0  0  0  0  0  0  0  0  0  0  0
   58.4603 -136.1282   33.1205 H   0  0  0  0  0  0  0  0  0  0  0  0
   59.2552 -133.2621   33.4685 H   0  0  0  0  0  0  0  0  0  0  0  0
   58.2688 -134.3109   35.8768 H   0  0  0  0  0  0  0  0  0  0  0  0
   57.3196 -135.1929   34.6326 H   0  0  0  0  0  0  0  0  0  0  0  0
   56.9422 -132.9653   33.4692 H   0  0  0  0  0  0  0  0  0  0  0  0
   57.7010 -132.1659   34.8876 H   0  0  0  0  0  0  0  0  0  0  0  0
   54.9309 -131.8226   33.8016 H   0  0  0  0  0  0  0  0  0  0  0  0
   56.5318 -134.3481   36.8696 H   0  0  0  0  0  0  0  0  0  0  0  0
   52.7418 -131.8439   34.9375 H   0  0  0  0  0  0  0  0  0  0  0  0
   54.3399 -134.3718   38.0001 H   0  0  0  0  0  0  0  0  0  0  0  0
   52.4357 -133.1149   37.0390 H   0  0  0  0  0  0  0  0  0  0  0  0
   60.7115 -132.7787   35.2250 H   0  0  0  0  0  0  0  0  0  0  0  0
   62.5862 -135.0170   35.8259 H   0  0  0  0  0  0  0  0  0  0  0  0
   63.8517 -133.1199   37.0216 H   0  0  0  0  0  0  0  0  0  0  0  0
   62.6583 -132.0054   36.2731 H   0  0  0  0  0  0  0  0  0  0  0  0
   63.1544 -133.2896   34.0440 H   0  0  0  0  0  0  0  0  0  0  0  0
   65.1432 -131.8555   33.5878 H   0  0  0  0  0  0  0  0  0  0  0  0
   65.3385 -131.5728   35.3509 H   0  0  0  0  0  0  0  0  0  0  0  0
   63.8808 -130.9595   34.4989 H   0  0  0  0  0  0  0  0  0  0  0  0
   64.3682 -135.1964   35.0857 H   0  0  0  0  0  0  0  0  0  0  0  0
   65.6411 -134.0689   35.6645 H   0  0  0  0  0  0  0  0  0  0  0  0
   65.4045 -134.3285   33.9029 H   0  0  0  0  0  0  0  0  0  0  0  0
   62.6524 -135.9811   37.7179 H   0  0  0  0  0  0  0  0  0  0  0  0
   60.9954 -134.9216   39.9878 H   0  0  0  0  0  0  0  0  0  0  0  0
   61.0570 -137.3843   40.7323 H   0  0  0  0  0  0  0  0  0  0  0  0
   61.5831 -137.7495   39.0540 H   0  0  0  0  0  0  0  0  0  0  0  0
   60.1390 -137.6183   37.2749 H   0  0  0  0  0  0  0  0  0  0  0  0
   59.0452 -136.0294   41.1059 H   0  0  0  0  0  0  0  0  0  0  0  0
   57.8167 -137.3045   36.4819 H   0  0  0  0  0  0  0  0  0  0  0  0
   56.7262 -135.7062   40.3078 H   0  0  0  0  0  0  0  0  0  0  0  0
   56.1080 -136.3528   38.0002 H   0  0  0  0  0  0  0  0  0  0  0  0
   61.8633 -135.6789   42.0846 H   0  0  0  0  0  0  0  0  0  0  0  0
   64.8675 -135.5657   42.1647 H   0  0  0  0  0  0  0  0  0  0  0  0
   63.6269 -134.0435   44.2673 H   0  0  0  0  0  0  0  0  0  0  0  0
   62.7395 -133.6428   42.7578 H   0  0  0  0  0  0  0  0  0  0  0  0
   65.7563 -133.3918   43.2518 H   0  0  0  0  0  0  0  0  0  0  0  0
   65.2356 -130.9555   42.9128 H   0  0  0  0  0  0  0  0  0  0  0  0
   64.3104 -131.6455   44.2891 H   0  0  0  0  0  0  0  0  0  0  0  0
   63.4990 -131.3675   42.7108 H   0  0  0  0  0  0  0  0  0  0  0  0
   65.3552 -134.0769   40.8942 H   0  0  0  0  0  0  0  0  0  0  0  0
   65.8901 -132.3651   40.9955 H   0  0  0  0  0  0  0  0  0  0  0  0
   64.1586 -132.7498   40.7116 H   0  0  0  0  0  0  0  0  0  0  0  0
   64.5153 -136.0224   44.6400 H   0  0  0  0  0  0  0  0  0  0  0  0
   64.4268 -138.4259   44.5757 H   0  0  0  0  0  0  0  0  0  0  0  0
   65.6530 -139.0680   42.4876 H   0  0  0  0  0  0  0  0  0  0  0  0
   66.2612 -137.4968   43.1105 H   0  0  0  0  0  0  0  0  0  0  0  0
   65.1430 -137.5336   41.7051 H   0  0  0  0  0  0  0  0  0  0  0  0
   62.2920 -137.7789   42.5531 H   0  0  0  0  0  0  0  0  0  0  0  0
   62.3583 -139.1097   43.7578 H   0  0  0  0  0  0  0  0  0  0  0  0
   63.8288 -139.0022   41.2992 H   0  0  0  0  0  0  0  0  0  0  0  0
   62.4442 -136.7904   45.2347 H   0  0  0  0  0  0  0  0  0  0  0  0
  1  2  2  0  0  0  0
  1 10  1  0  0  0  0
  3  1  1  0  0  0  0
  3 53  1  0  0  0  0
  3 54  1  0  0  0  0
  4  3  1  0  0  0  0
  4  7  1  0  0  0  0
  4 55  1  0  0  0  0
  5  9  1  0  0  0  0
  6  4  1  0  0  0  0
  6  8  1  0  0  0  0
  6 56  1  0  0  0  0
  6 57  1  0  0  0  0
  7  9  1  0  0  0  0
  7 58  1  0  0  0  0
  7 59  1  0  0  0  0
  8  5  1  0  0  0  0
  8 60  1  0  0  0  0
  8 61  1  0  0  0  0
  9 62  1  0  0  0  0
  9 63  1  0  0  0  0
 10 11  1  0  0  0  0
 10 64  1  0  0  0  0
 11 12  1  0  0  0  0
 11 14  1  0  0  0  0
 11 65  1  6  0  0  0
 12 13  2  0  0  0  0
 12 22  1  0  0  0  0
 14 15  1  0  0  0  0
 14 66  1  0  0  0  0
 14 67  1  0  0  0  0
 15 16  1  0  0  0  0
 15 68  1  0  0  0  0
 15 69  1  0  0  0  0
 16 17  2  0  0  0  0
 16 18  1  0  0  0  0
 17 19  1  0  0  0  0
 17 70  1  0  0  0  0
 18 20  2  0  0  0  0
 18 71  1  0  0  0  0
 19 21  2  0  0  0  0
 19 72  1  0  0  0  0
 20 21  1  0  0  0  0
 20 73  1  0  0  0  0
 21 74  1  0  0  0  0
 22 23  1  0  0  0  0
 22 75  1  0  0  0  0
 23 24  1  0  0  0  0
 23 26  1  0  0  0  0
 23 76  1  6  0  0  0
 24 25  2  0  0  0  0
 24 30  1  0  0  0  0
 26 27  1  0  0  0  0
 26 77  1  0  0  0  0
 26 78  1  0  0  0  0
 27 28  1  0  0  0  0
 27 29  1  0  0  0  0
 27 79  1  0  0  0  0
 28 80  1  0  0  0  0
 28 81  1  0  0  0  0
 28 82  1  0  0  0  0
 29 83  1  0  0  0  0
 29 84  1  0  0  0  0
 29 85  1  0  0  0  0
 30 31  1  0  0  0  0
 30 86  1  0  0  0  0
 31 32  1  0  0  0  0
 31 34  1  0  0  0  0
 31 87  1  1  0  0  0
 32 33  2  0  0  0  0
 32 41  1  0  0  0  0
 34 35  1  0  0  0  0
 34 88  1  0  0  0  0
 34 89  1  0  0  0  0
 35 36  2  0  0  0  0
 35 37  1  0  0  0  0
 36 38  1  0  0  0  0
 36 90  1  0  0  0  0
 37 39  2  0  0  0  0
 37 91  1  0  0  0  0
 38 40  2  0  0  0  0
 38 92  1  0  0  0  0
 39 40  1  0  0  0  0
 39 93  1  0  0  0  0
 40 94  1  0  0  0  0
 41 42  1  0  0  0  0
 41 95  1  0  0  0  0
 42 43  1  0  0  0  0
 42 47  1  0  0  0  0
 42 96  1  6  0  0  0
 43 44  1  0  0  0  0
 43 97  1  0  0  0  0
 43 98  1  0  0  0  0
 44 45  1  0  0  0  0
 44 46  1  0  0  0  0
 44 99  1  0  0  0  0
 45100  1  0  0  0  0
 45101  1  0  0  0  0
 45102  1  0  0  0  0
 46103  1  0  0  0  0
 46104  1  0  0  0  0
 46105  1  0  0  0  0
 47 48  1  0  0  0  0
 47 52  1  0  0  0  0
 47106  1  1  0  0  0
 48 49  1  0  0  0  0
 48 50  1  0  0  0  0
 48107  1  1  0  0  0
 49108  1  0  0  0  0
 49109  1  0  0  0  0
 49110  1  0  0  0  0
 50 51  1  0  0  0  0
 50111  1  0  0  0  0
 50112  1  0  0  0  0
 51113  1  0  0  0  0
 52114  1  0  0  0  0
M  CHG  1   4   1
M  END
