4qwg_ligand
 OpenBabel08222323353D

114116  0  0  1  0  0  0  0  0999 V2000
   59.6750 -136.4570   31.8710 C   0  0  0  0  0  0  0  0  0  0  0  0
   60.5040 -135.6230   31.5060 O   0  0  0  0  0  0  0  0  0  0  0  0
   59.2490 -137.6280   30.9670 C   0  0  0  0  0  0  0  0  0  0  0  0
   58.8720 -137.2350   29.5870 N   0  3  0  0  0  0  0  0  0  0  0  0
   58.7520 -135.7290   27.3640 O   0  0  0  0  0  0  0  0  0  0  0  0
   60.0480 -137.0560   28.6970 C   0  0  0  0  0  0  0  0  0  0  0  0
   57.9720 -136.0520   29.5480 C   0  0  0  0  0  0  0  0  0  0  0  0
   59.5090 -136.9280   27.3100 C   0  0  0  0  0  0  0  0  0  0  0  0
   57.5470 -135.8430   28.1710 C   0  0  0  0  0  0  0  0  0  0  0  0
   59.0810 -136.4500   33.0720 N   0  0  0  0  0  0  0  0  0  0  0  0
   59.4070 -135.4470   34.0880 C   0  0  2  0  0  0  0  0  0  0  0  0
   60.6120 -135.9640   34.8440 C   0  0  0  0  0  0  0  0  0  0  0  0
   60.8720 -137.1670   34.8560 O   0  0  0  0  0  0  0  0  0  0  0  0
   58.3030 -135.3430   35.1050 C   0  0  0  0  0  0  0  0  0  0  0  0
   57.3550 -134.2740   34.5940 C   0  0  0  0  0  0  0  0  0  0  0  0
   56.1410 -134.2960   35.3320 C   0  0  0  0  0  0  0  0  0  0  0  0
   55.0390 -133.6330   34.7870 C   0  0  0  0  0  0  0  0  0  0  0  0
   55.9830 -134.9200   36.5810 C   0  0  0  0  0  0  0  0  0  0  0  0
   53.8150 -133.6020   35.4520 C   0  0  0  0  0  0  0  0  0  0  0  0
   54.7600 -134.8910   37.2460 C   0  0  0  0  0  0  0  0  0  0  0  0
   53.6730 -134.2320   36.6840 C   0  0  0  0  0  0  0  0  0  0  0  0
   61.2950 -135.0340   35.5160 N   0  0  0  0  0  0  0  0  0  0  0  0
   62.4390 -135.4050   36.3460 C   0  0  2  0  0  0  0  0  0  0  0  0
   61.9180 -135.6330   37.7620 C   0  0  0  0  0  0  0  0  0  0  0  0
   61.0490 -134.8980   38.2330 O   0  0  0  0  0  0  0  0  0  0  0  0
   63.4520 -134.2940   36.3800 C   0  0  0  0  0  0  0  0  0  0  0  0
   64.1980 -134.3220   35.0340 C   0  0  0  0  0  0  0  0  0  0  0  0
   65.1600 -133.1260   34.9830 C   0  0  0  0  0  0  0  0  0  0  0  0
   64.9990 -135.6250   34.8590 C   0  0  0  0  0  0  0  0  0  0  0  0
   62.4720 -136.6780   38.3990 N   0  0  0  0  0  0  0  0  0  0  0  0
   62.1040 -137.0520   39.7720 C   0  0  2  0  0  0  0  0  0  0  0  0
   63.3880 -137.0830   40.6040 C   0  0  0  0  0  0  0  0  0  0  0  0
   64.4830 -137.2070   40.0560 O   0  0  0  0  0  0  0  0  0  0  0  0
   61.4300 -138.3960   39.7610 C   0  0  0  0  0  0  0  0  0  0  0  0
   60.1030 -138.1580   39.3660 C   0  0  0  0  0  0  0  0  0  0  0  0
   59.6500 -138.5330   38.0980 C   0  0  0  0  0  0  0  0  0  0  0  0
   59.2140 -137.5430   40.2470 C   0  0  0  0  0  0  0  0  0  0  0  0
   58.3290 -138.2920   37.7230 C   0  0  0  0  0  0  0  0  0  0  0  0
   57.8960 -137.3010   39.8700 C   0  0  0  0  0  0  0  0  0  0  0  0
   57.4500 -137.6760   38.6080 C   0  0  0  0  0  0  0  0  0  0  0  0
   63.2050 -136.9390   41.9270 N   0  0  0  0  0  0  0  0  0  0  0  0
   64.3090 -136.8010   42.8900 C   0  0  1  0  0  0  0  0  0  0  0  0
   64.1150 -135.3900   43.4260 C   0  0  0  0  0  0  0  0  0  0  0  0
   65.1700 -134.3560   42.9360 C   0  0  0  0  0  0  0  0  0  0  0  0
   64.5280 -132.9550   43.0140 C   0  0  0  0  0  0  0  0  0  0  0  0
   65.7100 -134.5720   41.5050 C   0  0  0  0  0  0  0  0  0  0  0  0
   64.2170 -137.7690   44.0990 C   0  0  2  0  0  0  0  0  0  0  0  0
   64.5550 -139.3440   43.8650 C   0  0  2  0  0  0  0  0  0  0  0  0
   65.2890 -139.5730   42.5040 C   0  0  0  0  0  0  0  0  0  0  0  0
   63.2270 -140.0820   43.6780 C   0  0  0  0  0  0  0  0  0  0  0  0
   62.7930 -140.3780   45.0180 O   0  0  0  0  0  0  0  0  0  0  0  0
   62.8950 -137.6240   44.6470 O   0  0  0  0  0  0  0  0  0  0  0  0
   58.3837 -138.1234   31.4315 H   0  0  0  0  0  0  0  0  0  0  0  0
   60.0878 -138.3370   30.9051 H   0  0  0  0  0  0  0  0  0  0  0  0
   58.3443 -138.0066   29.2099 H   0  0  0  0  0  0  0  0  0  0  0  0
   60.7150 -137.9279   28.7673 H   0  0  0  0  0  0  0  0  0  0  0  0
   60.6017 -136.1473   28.9757 H   0  0  0  0  0  0  0  0  0  0  0  0
   58.5104 -135.1635   29.9095 H   0  0  0  0  0  0  0  0  0  0  0  0
   57.0933 -136.2325   30.1846 H   0  0  0  0  0  0  0  0  0  0  0  0
   60.3244 -136.8466   26.5762 H   0  0  0  0  0  0  0  0  0  0  0  0
   58.8702 -137.7863   27.0546 H   0  0  0  0  0  0  0  0  0  0  0  0
   56.9431 -136.6964   27.8289 H   0  0  0  0  0  0  0  0  0  0  0  0
   56.9535 -134.9200   28.0953 H   0  0  0  0  0  0  0  0  0  0  0  0
   58.3965 -137.1486   33.2802 H   0  0  0  0  0  0  0  0  0  0  0  0
   59.6061 -134.4707   33.6219 H   0  0  0  0  0  0  0  0  0  0  0  0
   58.7125 -135.0530   36.0839 H   0  0  0  0  0  0  0  0  0  0  0  0
   57.7781 -136.3052   35.1976 H   0  0  0  0  0  0  0  0  0  0  0  0
   57.1371 -134.4601   33.5320 H   0  0  0  0  0  0  0  0  0  0  0  0
   57.8282 -133.2871   34.7038 H   0  0  0  0  0  0  0  0  0  0  0  0
   55.1378 -133.1338   33.8299 H   0  0  0  0  0  0  0  0  0  0  0  0
   56.8251 -135.4312   37.0333 H   0  0  0  0  0  0  0  0  0  0  0  0
   52.9714 -133.0857   35.0082 H   0  0  0  0  0  0  0  0  0  0  0  0
   54.6553 -135.3842   38.2056 H   0  0  0  0  0  0  0  0  0  0  0  0
   52.7211 -134.2091   37.2022 H   0  0  0  0  0  0  0  0  0  0  0  0
   61.0210 -134.0745   35.4506 H   0  0  0  0  0  0  0  0  0  0  0  0
   62.9055 -136.3218   35.9562 H   0  0  0  0  0  0  0  0  0  0  0  0
   64.1595 -134.4533   37.2071 H   0  0  0  0  0  0  0  0  0  0  0  0
   62.9464 -133.3260   36.5113 H   0  0  0  0  0  0  0  0  0  0  0  0
   63.4667 -134.2404   34.2164 H   0  0  0  0  0  0  0  0  0  0  0  0
   65.7017 -133.1317   34.0256 H   0  0  0  0  0  0  0  0  0  0  0  0
   65.8796 -133.1986   35.8118 H   0  0  0  0  0  0  0  0  0  0  0  0
   64.5879 -132.1910   35.0749 H   0  0  0  0  0  0  0  0  0  0  0  0
   64.3134 -136.4845   34.8949 H   0  0  0  0  0  0  0  0  0  0  0  0
   65.7389 -135.7121   35.6683 H   0  0  0  0  0  0  0  0  0  0  0  0
   65.5170 -135.6095   33.8887 H   0  0  0  0  0  0  0  0  0  0  0  0
   63.1612 -137.2223   37.9207 H   0  0  0  0  0  0  0  0  0  0  0  0
   61.4131 -136.3053   40.1904 H   0  0  0  0  0  0  0  0  0  0  0  0
   61.4557 -138.8452   40.7648 H   0  0  0  0  0  0  0  0  0  0  0  0
   61.9274 -139.0677   39.0459 H   0  0  0  0  0  0  0  0  0  0  0  0
   60.3290 -139.0135   37.4029 H   0  0  0  0  0  0  0  0  0  0  0  0
   59.5524 -137.2507   41.2345 H   0  0  0  0  0  0  0  0  0  0  0  0
   57.9854 -138.5858   36.7378 H   0  0  0  0  0  0  0  0  0  0  0  0
   57.2156 -136.8188   40.5625 H   0  0  0  0  0  0  0  0  0  0  0  0
   56.4231 -137.4895   38.3151 H   0  0  0  0  0  0  0  0  0  0  0  0
   62.2681 -136.9248   42.2762 H   0  0  0  0  0  0  0  0  0  0  0  0
   65.2800 -136.9230   42.3877 H   0  0  0  0  0  0  0  0  0  0  0  0
   64.1608 -135.4316   44.5242 H   0  0  0  0  0  0  0  0  0  0  0  0
   63.1206 -135.0387   43.1135 H   0  0  0  0  0  0  0  0  0  0  0  0
   66.0269 -134.3999   43.6243 H   0  0  0  0  0  0  0  0  0  0  0  0
   65.2520 -132.2004   42.6728 H   0  0  0  0  0  0  0  0  0  0  0  0
   64.2385 -132.7417   44.0535 H   0  0  0  0  0  0  0  0  0  0  0  0
   63.6359 -132.9241   42.3712 H   0  0  0  0  0  0  0  0  0  0  0  0
   66.1714 -135.5680   41.4337 H   0  0  0  0  0  0  0  0  0  0  0  0
   66.4621 -133.8024   41.2768 H   0  0  0  0  0  0  0  0  0  0  0  0
   64.8812 -134.4995   40.7855 H   0  0  0  0  0  0  0  0  0  0  0  0
   64.9422 -137.4109   44.8445 H   0  0  0  0  0  0  0  0  0  0  0  0
   65.1375 -139.7437   44.7081 H   0  0  0  0  0  0  0  0  0  0  0  0
   65.5018 -140.6448   42.3780 H   0  0  0  0  0  0  0  0  0  0  0  0
   66.2330 -139.0085   42.4970 H   0  0  0  0  0  0  0  0  0  0  0  0
   64.6486 -139.2270   41.6793 H   0  0  0  0  0  0  0  0  0  0  0  0
   63.3734 -141.0079   43.1024 H   0  0  0  0  0  0  0  0  0  0  0  0
   62.4947 -139.4423   43.1636 H   0  0  0  0  0  0  0  0  0  0  0  0
   62.6850 -139.5672   45.5011 H   0  0  0  0  0  0  0  0  0  0  0  0
   62.8462 -138.0810   45.4784 H   0  0  0  0  0  0  0  0  0  0  0  0
  1  2  2  0  0  0  0
  1 10  1  0  0  0  0
  3  1  1  0  0  0  0
  3 53  1  0  0  0  0
  3 54  1  0  0  0  0
  4  3  1  0  0  0  0
  4  7  1  0  0  0  0
  4 55  1  0  0  0  0
  5  9  1  0  0  0  0
  6  4  1  0  0  0  0
  6  8  1  0  0  0  0
  6 56  1  0  0  0  0
  6 57  1  0  0  0  0
  7  9  1  0  0  0  0
  7 58  1  0  0  0  0
  7 59  1  0  0  0  0
  8  5  1  0  0  0  0
  8 60  1  0  0  0  0
  8 61  1  0  0  0  0
  9 62  1  0  0  0  0
  9 63  1  0  0  0  0
 10 11  1  0  0  0  0
 10 64  1  0  0  0  0
 11 12  1  0  0  0  0
 11 14  1  0  0  0  0
 11 65  1  6  0  0  0
 12 13  2  0  0  0  0
 12 22  1  0  0  0  0
 14 15  1  0  0  0  0
 14 66  1  0  0  0  0
 14 67  1  0  0  0  0
 15 16  1  0  0  0  0
 15 68  1  0  0  0  0
 15 69  1  0  0  0  0
 16 17  2  0  0  0  0
 16 18  1  0  0  0  0
 17 19  1  0  0  0  0
 17 70  1  0  0  0  0
 18 20  2  0  0  0  0
 18 71  1  0  0  0  0
 19 21  2  0  0  0  0
 19 72  1  0  0  0  0
 20 21  1  0  0  0  0
 20 73  1  0  0  0  0
 21 74  1  0  0  0  0
 22 23  1  0  0  0  0
 22 75  1  0  0  0  0
 23 24  1  0  0  0  0
 23 26  1  0  0  0  0
 23 76  1  6  0  0  0
 24 25  2  0  0  0  0
 24 30  1  0  0  0  0
 26 27  1  0  0  0  0
 26 77  1  0  0  0  0
 26 78  1  0  0  0  0
 27 28  1  0  0  0  0
 27 29  1  0  0  0  0
 27 79  1  0  0  0  0
 28 80  1  0  0  0  0
 28 81  1  0  0  0  0
 28 82  1  0  0  0  0
 29 83  1  0  0  0  0
 29 84  1  0  0  0  0
 29 85  1  0  0  0  0
 30 31  1  0  0  0  0
 30 86  1  0  0  0  0
 31 32  1  0  0  0  0
 31 34  1  0  0  0  0
 31 87  1  1  0  0  0
 32 33  2  0  0  0  0
 32 41  1  0  0  0  0
 34 35  1  0  0  0  0
 34 88  1  0  0  0  0
 34 89  1  0  0  0  0
 35 36  2  0  0  0  0
 35 37  1  0  0  0  0
 36 38  1  0  0  0  0
 36 90  1  0  0  0  0
 37 39  2  0  0  0  0
 37 91  1  0  0  0  0
 38 40  2  0  0  0  0
 38 92  1  0  0  0  0
 39 40  1  0  0  0  0
 39 93  1  0  0  0  0
 40 94  1  0  0  0  0
 41 42  1  0  0  0  0
 41 95  1  0  0  0  0
 42 43  1  0  0  0  0
 42 47  1  0  0  0  0
 42 96  1  6  0  0  0
 43 44  1  0  0  0  0
 43 97  1  0  0  0  0
 43 98  1  0  0  0  0
 44 45  1  0  0  0  0
 44 46  1  0  0  0  0
 44 99  1  0  0  0  0
 45100  1  0  0  0  0
 45101  1  0  0  0  0
 45102  1  0  0  0  0
 46103  1  0  0  0  0
 46104  1  0  0  0  0
 46105  1  0  0  0  0
 47 48  1  0  0  0  0
 47 52  1  0  0  0  0
 47106  1  1  0  0  0
 48 49  1  0  0  0  0
 48 50  1  0  0  0  0
 48107  1  1  0  0  0
 49108  1  0  0  0  0
 49109  1  0  0  0  0
 49110  1  0  0  0  0
 50 51  1  0  0  0  0
 50111  1  0  0  0  0
 50112  1  0  0  0  0
 51113  1  0  0  0  0
 52114  1  0  0  0  0
M  CHG  1   4   1
M  END
