4qwj_ligand
 OpenBabel08222323353D

114116  0  0  1  0  0  0  0  0999 V2000
   59.2140 -135.6980   31.6460 C   0  0  0  0  0  0  0  0  0  0  0  0
   59.9890 -134.8400   31.2170 O   0  0  0  0  0  0  0  0  0  0  0  0
   58.6900 -136.8480   30.7670 C   0  0  0  0  0  0  0  0  0  0  0  0
   58.3880 -136.4520   29.3660 N   0  3  0  0  0  0  0  0  0  0  0  0
   58.5740 -134.9150   27.1580 O   0  0  0  0  0  0  0  0  0  0  0  0
   59.6160 -136.3950   28.5320 C   0  0  0  0  0  0  0  0  0  0  0  0
   57.5980 -135.1920   29.2820 C   0  0  0  0  0  0  0  0  0  0  0  0
   59.1570 -136.2070   27.1250 C   0  0  0  0  0  0  0  0  0  0  0  0
   57.3150 -134.8590   27.8870 C   0  0  0  0  0  0  0  0  0  0  0  0
   58.7620 -135.7240   32.9020 N   0  0  0  0  0  0  0  0  0  0  0  0
   59.1710 -134.7080   33.8720 C   0  0  2  0  0  0  0  0  0  0  0  0
   60.4270 -135.1890   34.5800 C   0  0  0  0  0  0  0  0  0  0  0  0
   60.7260 -136.3840   34.6080 O   0  0  0  0  0  0  0  0  0  0  0  0
   58.0910 -134.5560   34.9170 C   0  0  0  0  0  0  0  0  0  0  0  0
   57.2360 -133.3780   34.4790 C   0  0  0  0  0  0  0  0  0  0  0  0
   55.9330 -133.5100   35.0280 C   0  0  0  0  0  0  0  0  0  0  0  0
   54.8190 -133.1360   34.2660 C   0  0  0  0  0  0  0  0  0  0  0  0
   55.7120 -133.9800   36.3330 C   0  0  0  0  0  0  0  0  0  0  0  0
   53.5270 -133.2440   34.7810 C   0  0  0  0  0  0  0  0  0  0  0  0
   54.4190 -134.0910   36.8470 C   0  0  0  0  0  0  0  0  0  0  0  0
   53.3230 -133.7220   36.0730 C   0  0  0  0  0  0  0  0  0  0  0  0
   61.1260 -134.2150   35.1720 N   0  0  0  0  0  0  0  0  0  0  0  0
   62.3040 -134.5280   35.9740 C   0  0  2  0  0  0  0  0  0  0  0  0
   61.7680 -134.7990   37.3810 C   0  0  0  0  0  0  0  0  0  0  0  0
   60.8710 -134.0970   37.8520 O   0  0  0  0  0  0  0  0  0  0  0  0
   63.2560 -133.3530   36.0170 C   0  0  0  0  0  0  0  0  0  0  0  0
   64.0860 -133.3900   34.7160 C   0  0  0  0  0  0  0  0  0  0  0  0
   64.9840 -132.1410   34.6470 C   0  0  0  0  0  0  0  0  0  0  0  0
   64.9640 -134.6550   34.6450 C   0  0  0  0  0  0  0  0  0  0  0  0
   62.2950 -135.8660   38.0000 N   0  0  0  0  0  0  0  0  0  0  0  0
   61.9010 -136.2310   39.3720 C   0  0  2  0  0  0  0  0  0  0  0  0
   63.1750 -136.2180   40.1990 C   0  0  0  0  0  0  0  0  0  0  0  0
   64.2750 -136.2490   39.6440 O   0  0  0  0  0  0  0  0  0  0  0  0
   61.2520 -137.5840   39.4460 C   0  0  0  0  0  0  0  0  0  0  0  0
   59.9490 -137.4020   38.9610 C   0  0  0  0  0  0  0  0  0  0  0  0
   59.6140 -137.8080   37.6670 C   0  0  0  0  0  0  0  0  0  0  0  0
   58.9710 -136.8160   39.7700 C   0  0  0  0  0  0  0  0  0  0  0  0
   58.3170 -137.6280   37.1870 C   0  0  0  0  0  0  0  0  0  0  0  0
   57.6750 -136.6340   39.2900 C   0  0  0  0  0  0  0  0  0  0  0  0
   57.3460 -137.0410   37.9980 C   0  0  0  0  0  0  0  0  0  0  0  0
   62.9800 -136.1500   41.5240 N   0  0  0  0  0  0  0  0  0  0  0  0
   64.0940 -135.9830   42.4610 C   0  0  1  0  0  0  0  0  0  0  0  0
   63.8840 -134.5650   42.9800 C   0  0  0  0  0  0  0  0  0  0  0  0
   64.9790 -133.5630   42.5020 C   0  0  0  0  0  0  0  0  0  0  0  0
   64.3890 -132.1380   42.5650 C   0  0  0  0  0  0  0  0  0  0  0  0
   65.5280 -133.8050   41.0770 C   0  0  0  0  0  0  0  0  0  0  0  0
   64.0670 -136.9660   43.6610 C   0  0  2  0  0  0  0  0  0  0  0  0
   64.6460 -138.4520   43.4030 C   0  0  2  0  0  0  0  0  0  0  0  0
   65.9040 -138.4000   42.4930 C   0  0  0  0  0  0  0  0  0  0  0  0
   63.6190 -139.2930   42.6300 C   0  0  0  0  0  0  0  0  0  0  0  0
   62.4070 -139.2580   43.3900 O   0  0  0  0  0  0  0  0  0  0  0  0
   62.7180 -137.0310   44.1640 O   0  0  0  0  0  0  0  0  0  0  0  0
   57.7677 -137.2381   31.2221 H   0  0  0  0  0  0  0  0  0  0  0  0
   59.4520 -137.6410   30.7452 H   0  0  0  0  0  0  0  0  0  0  0  0
   57.8084 -137.1805   28.9796 H   0  0  0  0  0  0  0  0  0  0  0  0
   60.1840 -137.3324   28.6255 H   0  0  0  0  0  0  0  0  0  0  0  0
   60.2486 -135.5504   28.8425 H   0  0  0  0  0  0  0  0  0  0  0  0
   58.1719 -134.3733   29.7406 H   0  0  0  0  0  0  0  0  0  0  0  0
   56.6491 -135.3225   29.8229 H   0  0  0  0  0  0  0  0  0  0  0  0
   60.0035 -136.2425   26.4235 H   0  0  0  0  0  0  0  0  0  0  0  0
   58.4158 -136.9697   26.8442 H   0  0  0  0  0  0  0  0  0  0  0  0
   56.6042 -135.5846   27.4648 H   0  0  0  0  0  0  0  0  0  0  0  0
   56.8883 -133.8472   27.8219 H   0  0  0  0  0  0  0  0  0  0  0  0
   58.1340 -136.4493   33.1842 H   0  0  0  0  0  0  0  0  0  0  0  0
   59.3549 -133.7491   33.3653 H   0  0  0  0  0  0  0  0  0  0  0  0
   58.5391 -134.3561   35.9015 H   0  0  0  0  0  0  0  0  0  0  0  0
   57.4813 -135.4700   34.9704 H   0  0  0  0  0  0  0  0  0  0  0  0
   57.1713 -133.3598   33.3811 H   0  0  0  0  0  0  0  0  0  0  0  0
   57.6910 -132.4420   34.8351 H   0  0  0  0  0  0  0  0  0  0  0  0
   54.9629 -132.7568   33.2607 H   0  0  0  0  0  0  0  0  0  0  0  0
   56.5579 -134.2606   36.9500 H   0  0  0  0  0  0  0  0  0  0  0  0
   52.6778 -132.9545   34.1726 H   0  0  0  0  0  0  0  0  0  0  0  0
   54.2681 -134.4660   37.8528 H   0  0  0  0  0  0  0  0  0  0  0  0
   52.3188 -133.8059   36.4724 H   0  0  0  0  0  0  0  0  0  0  0  0
   60.8388 -133.2632   35.0641 H   0  0  0  0  0  0  0  0  0  0  0  0
   62.8217 -135.4120   35.5735 H   0  0  0  0  0  0  0  0  0  0  0  0
   63.9198 -133.4376   36.8900 H   0  0  0  0  0  0  0  0  0  0  0  0
   62.6902 -132.4115   36.0764 H   0  0  0  0  0  0  0  0  0  0  0  0
   63.3983 -133.3881   33.8575 H   0  0  0  0  0  0  0  0  0  0  0  0
   65.5762 -132.1659   33.7203 H   0  0  0  0  0  0  0  0  0  0  0  0
   65.6606 -132.1275   35.5142 H   0  0  0  0  0  0  0  0  0  0  0  0
   64.3568 -131.2374   34.6571 H   0  0  0  0  0  0  0  0  0  0  0  0
   64.3243 -135.5485   34.6941 H   0  0  0  0  0  0  0  0  0  0  0  0
   65.6676 -134.6609   35.4905 H   0  0  0  0  0  0  0  0  0  0  0  0
   65.5265 -134.6584   33.6997 H   0  0  0  0  0  0  0  0  0  0  0  0
   62.9701 -136.4260   37.5197 H   0  0  0  0  0  0  0  0  0  0  0  0
   61.1956 -135.4816   39.7602 H   0  0  0  0  0  0  0  0  0  0  0  0
   61.2285 -137.9427   40.4856 H   0  0  0  0  0  0  0  0  0  0  0  0
   61.7973 -138.3065   38.8210 H   0  0  0  0  0  0  0  0  0  0  0  0
   60.3654 -138.2649   37.0332 H   0  0  0  0  0  0  0  0  0  0  0  0
   59.2220 -136.5013   40.7765 H   0  0  0  0  0  0  0  0  0  0  0  0
   58.0632 -137.9449   36.1819 H   0  0  0  0  0  0  0  0  0  0  0  0
   56.9227 -136.1758   39.9217 H   0  0  0  0  0  0  0  0  0  0  0  0
   56.3379 -136.9016   37.6246 H   0  0  0  0  0  0  0  0  0  0  0  0
   62.0487 -136.2151   41.8824 H   0  0  0  0  0  0  0  0  0  0  0  0
   65.0550 -136.0814   41.9350 H   0  0  0  0  0  0  0  0  0  0  0  0
   63.8914 -134.5913   44.0796 H   0  0  0  0  0  0  0  0  0  0  0  0
   62.9054 -134.2062   42.6284 H   0  0  0  0  0  0  0  0  0  0  0  0
   65.8251 -133.6337   43.2014 H   0  0  0  0  0  0  0  0  0  0  0  0
   65.1458 -131.4128   42.2314 H   0  0  0  0  0  0  0  0  0  0  0  0
   64.0928 -131.9092   43.5993 H   0  0  0  0  0  0  0  0  0  0  0  0
   63.5081 -132.0765   41.9091 H   0  0  0  0  0  0  0  0  0  0  0  0
   65.9528 -134.8177   41.0149 H   0  0  0  0  0  0  0  0  0  0  0  0
   66.3108 -133.0648   40.8550 H   0  0  0  0  0  0  0  0  0  0  0  0
   64.7110 -133.7047   40.3473 H   0  0  0  0  0  0  0  0  0  0  0  0
   64.6988 -136.5225   44.4446 H   0  0  0  0  0  0  0  0  0  0  0  0
   64.8870 -138.9253   44.3663 H   0  0  0  0  0  0  0  0  0  0  0  0
   66.2813 -139.4204   42.3304 H   0  0  0  0  0  0  0  0  0  0  0  0
   66.6831 -137.7941   42.9786 H   0  0  0  0  0  0  0  0  0  0  0  0
   65.6384 -137.9488   41.5256 H   0  0  0  0  0  0  0  0  0  0  0  0
   63.9747 -140.3291   42.5304 H   0  0  0  0  0  0  0  0  0  0  0  0
   63.4528 -138.8647   41.6306 H   0  0  0  0  0  0  0  0  0  0  0  0
   62.1137 -138.3584   43.4750 H   0  0  0  0  0  0  0  0  0  0  0  0
   62.1656 -137.4725   43.5296 H   0  0  0  0  0  0  0  0  0  0  0  0
  1  2  2  0  0  0  0
  1 10  1  0  0  0  0
  3  1  1  0  0  0  0
  3 53  1  0  0  0  0
  3 54  1  0  0  0  0
  4  3  1  0  0  0  0
  4  7  1  0  0  0  0
  4 55  1  0  0  0  0
  5  9  1  0  0  0  0
  6  4  1  0  0  0  0
  6  8  1  0  0  0  0
  6 56  1  0  0  0  0
  6 57  1  0  0  0  0
  7  9  1  0  0  0  0
  7 58  1  0  0  0  0
  7 59  1  0  0  0  0
  8  5  1  0  0  0  0
  8 60  1  0  0  0  0
  8 61  1  0  0  0  0
  9 62  1  0  0  0  0
  9 63  1  0  0  0  0
 10 11  1  0  0  0  0
 10 64  1  0  0  0  0
 11 12  1  0  0  0  0
 11 14  1  0  0  0  0
 11 65  1  6  0  0  0
 12 13  2  0  0  0  0
 12 22  1  0  0  0  0
 14 15  1  0  0  0  0
 14 66  1  0  0  0  0
 14 67  1  0  0  0  0
 15 16  1  0  0  0  0
 15 68  1  0  0  0  0
 15 69  1  0  0  0  0
 16 17  2  0  0  0  0
 16 18  1  0  0  0  0
 17 19  1  0  0  0  0
 17 70  1  0  0  0  0
 18 20  2  0  0  0  0
 18 71  1  0  0  0  0
 19 21  2  0  0  0  0
 19 72  1  0  0  0  0
 20 21  1  0  0  0  0
 20 73  1  0  0  0  0
 21 74  1  0  0  0  0
 22 23  1  0  0  0  0
 22 75  1  0  0  0  0
 23 24  1  0  0  0  0
 23 26  1  0  0  0  0
 23 76  1  6  0  0  0
 24 25  2  0  0  0  0
 24 30  1  0  0  0  0
 26 27  1  0  0  0  0
 26 77  1  0  0  0  0
 26 78  1  0  0  0  0
 27 28  1  0  0  0  0
 27 29  1  0  0  0  0
 27 79  1  0  0  0  0
 28 80  1  0  0  0  0
 28 81  1  0  0  0  0
 28 82  1  0  0  0  0
 29 83  1  0  0  0  0
 29 84  1  0  0  0  0
 29 85  1  0  0  0  0
 30 31  1  0  0  0  0
 30 86  1  0  0  0  0
 31 32  1  0  0  0  0
 31 34  1  0  0  0  0
 31 87  1  1  0  0  0
 32 33  2  0  0  0  0
 32 41  1  0  0  0  0
 34 35  1  0  0  0  0
 34 88  1  0  0  0  0
 34 89  1  0  0  0  0
 35 36  2  0  0  0  0
 35 37  1  0  0  0  0
 36 38  1  0  0  0  0
 36 90  1  0  0  0  0
 37 39  2  0  0  0  0
 37 91  1  0  0  0  0
 38 40  2  0  0  0  0
 38 92  1  0  0  0  0
 39 40  1  0  0  0  0
 39 93  1  0  0  0  0
 40 94  1  0  0  0  0
 41 42  1  0  0  0  0
 41 95  1  0  0  0  0
 42 43  1  0  0  0  0
 42 47  1  0  0  0  0
 42 96  1  6  0  0  0
 43 44  1  0  0  0  0
 43 97  1  0  0  0  0
 43 98  1  0  0  0  0
 44 45  1  0  0  0  0
 44 46  1  0  0  0  0
 44 99  1  0  0  0  0
 45100  1  0  0  0  0
 45101  1  0  0  0  0
 45102  1  0  0  0  0
 46103  1  0  0  0  0
 46104  1  0  0  0  0
 46105  1  0  0  0  0
 47 48  1  0  0  0  0
 47 52  1  0  0  0  0
 47106  1  1  0  0  0
 48 49  1  0  0  0  0
 48 50  1  0  0  0  0
 48107  1  1  0  0  0
 49108  1  0  0  0  0
 49109  1  0  0  0  0
 49110  1  0  0  0  0
 50 51  1  0  0  0  0
 50111  1  0  0  0  0
 50112  1  0  0  0  0
 51113  1  0  0  0  0
 52114  1  0  0  0  0
M  CHG  1   4   1
M  END
