4qws_ligand
 OpenBabel08222323353D

114116  0  0  1  0  0  0  0  0999 V2000
   59.6530 -135.7200   31.6990 C   0  0  0  0  0  0  0  0  0  0  0  0
   60.1920 -134.7030   31.2630 O   0  0  0  0  0  0  0  0  0  0  0  0
   59.3760 -136.9490   30.8280 C   0  0  0  0  0  0  0  0  0  0  0  0
   58.9170 -136.6040   29.4640 N   0  3  0  0  0  0  0  0  0  0  0  0
   58.4390 -135.0090   27.3390 O   0  0  0  0  0  0  0  0  0  0  0  0
   60.0160 -136.0820   28.6070 C   0  0  0  0  0  0  0  0  0  0  0  0
   57.7350 -135.6970   29.4670 C   0  0  0  0  0  0  0  0  0  0  0  0
   59.4800 -135.9760   27.2240 C   0  0  0  0  0  0  0  0  0  0  0  0
   57.3010 -135.5310   28.0900 C   0  0  0  0  0  0  0  0  0  0  0  0
   59.2450 -135.8620   32.9530 N   0  0  0  0  0  0  0  0  0  0  0  0
   59.4520 -134.8250   33.9510 C   0  0  2  0  0  0  0  0  0  0  0  0
   60.6520 -135.2830   34.7590 C   0  0  0  0  0  0  0  0  0  0  0  0
   60.8980 -136.4820   34.8800 O   0  0  0  0  0  0  0  0  0  0  0  0
   58.2570 -134.7880   34.8580 C   0  0  0  0  0  0  0  0  0  0  0  0
   57.4400 -133.5750   34.4550 C   0  0  0  0  0  0  0  0  0  0  0  0
   56.1840 -133.6430   35.1070 C   0  0  0  0  0  0  0  0  0  0  0  0
   55.0160 -133.3270   34.4090 C   0  0  0  0  0  0  0  0  0  0  0  0
   56.0710 -133.9990   36.4560 C   0  0  0  0  0  0  0  0  0  0  0  0
   53.7740 -133.3810   35.0370 C   0  0  0  0  0  0  0  0  0  0  0  0
   54.8310 -134.0560   37.0820 C   0  0  0  0  0  0  0  0  0  0  0  0
   53.6780 -133.7460   36.3750 C   0  0  0  0  0  0  0  0  0  0  0  0
   61.3750 -134.3140   35.3140 N   0  0  0  0  0  0  0  0  0  0  0  0
   62.5360 -134.6530   36.1370 C   0  0  2  0  0  0  0  0  0  0  0  0
   62.0560 -134.8290   37.5670 C   0  0  0  0  0  0  0  0  0  0  0  0
   61.3610 -133.9610   38.0960 O   0  0  0  0  0  0  0  0  0  0  0  0
   63.5160 -133.5250   36.1010 C   0  0  0  0  0  0  0  0  0  0  0  0
   64.2250 -133.6650   34.7410 C   0  0  0  0  0  0  0  0  0  0  0  0
   64.7500 -132.2950   34.2950 C   0  0  0  0  0  0  0  0  0  0  0  0
   65.3870 -134.6680   34.8500 C   0  0  0  0  0  0  0  0  0  0  0  0
   62.4330 -135.9750   38.1540 N   0  0  0  0  0  0  0  0  0  0  0  0
   62.0730 -136.2750   39.5450 C   0  0  2  0  0  0  0  0  0  0  0  0
   63.3570 -136.2890   40.3610 C   0  0  0  0  0  0  0  0  0  0  0  0
   64.4610 -136.3120   39.8120 O   0  0  0  0  0  0  0  0  0  0  0  0
   61.3790 -137.5910   39.6680 C   0  0  0  0  0  0  0  0  0  0  0  0
   60.0900 -137.3770   39.1710 C   0  0  0  0  0  0  0  0  0  0  0  0
   59.7830 -137.7100   37.8530 C   0  0  0  0  0  0  0  0  0  0  0  0
   59.1020 -136.8320   39.9910 C   0  0  0  0  0  0  0  0  0  0  0  0
   58.5000 -137.5010   37.3580 C   0  0  0  0  0  0  0  0  0  0  0  0
   57.8190 -136.6240   39.4950 C   0  0  0  0  0  0  0  0  0  0  0  0
   57.5160 -136.9580   38.1780 C   0  0  0  0  0  0  0  0  0  0  0  0
   63.1530 -136.2330   41.6860 N   0  0  0  0  0  0  0  0  0  0  0  0
   64.2490 -136.0700   42.6350 C   0  0  1  0  0  0  0  0  0  0  0  0
   64.0170 -134.6670   43.1750 C   0  0  0  0  0  0  0  0  0  0  0  0
   65.0830 -133.6880   42.6490 C   0  0  0  0  0  0  0  0  0  0  0  0
   64.6840 -132.2710   43.0860 C   0  0  0  0  0  0  0  0  0  0  0  0
   65.1940 -133.7180   41.1200 C   0  0  0  0  0  0  0  0  0  0  0  0
   64.2000 -137.0240   43.8440 C   0  0  2  0  0  0  0  0  0  0  0  0
   64.5630 -138.5470   43.5850 C   0  0  2  0  0  0  0  0  0  0  0  0
   65.7890 -138.6580   42.6450 C   0  0  0  0  0  0  0  0  0  0  0  0
   63.4110 -139.2300   42.8380 C   0  0  0  0  0  0  0  0  0  0  0  0
   62.2310 -138.9560   43.5950 O   0  0  0  0  0  0  0  0  0  0  0  0
   62.9110 -136.9190   44.4610 O   0  0  0  0  0  0  0  0  0  0  0  0
   58.5986 -137.5554   31.3157 H   0  0  0  0  0  0  0  0  0  0  0  0
   60.3024 -137.5365   30.7472 H   0  0  0  0  0  0  0  0  0  0  0  0
   58.6120 -137.4671   29.0420 H   0  0  0  0  0  0  0  0  0  0  0  0
   60.8715 -136.7731   28.6280 H   0  0  0  0  0  0  0  0  0  0  0  0
   60.3355 -135.0920   28.9646 H   0  0  0  0  0  0  0  0  0  0  0  0
   58.0127 -134.7213   29.8923 H   0  0  0  0  0  0  0  0  0  0  0  0
   56.9245 -136.1401   30.0642 H   0  0  0  0  0  0  0  0  0  0  0  0
   60.2586 -135.6333   26.5267 H   0  0  0  0  0  0  0  0  0  0  0  0
   59.0816 -136.9427   26.8825 H   0  0  0  0  0  0  0  0  0  0  0  0
   56.9875 -136.4999   27.6742 H   0  0  0  0  0  0  0  0  0  0  0  0
   56.4610 -134.8224   28.0424 H   0  0  0  0  0  0  0  0  0  0  0  0
   58.7815 -136.7069   33.2199 H   0  0  0  0  0  0  0  0  0  0  0  0
   59.6252 -133.8431   33.4863 H   0  0  0  0  0  0  0  0  0  0  0  0
   58.5792 -134.6967   35.9058 H   0  0  0  0  0  0  0  0  0  0  0  0
   57.6604 -135.7041   34.7363 H   0  0  0  0  0  0  0  0  0  0  0  0
   57.2926 -133.5722   33.3649 H   0  0  0  0  0  0  0  0  0  0  0  0
   57.9654 -132.6568   34.7564 H   0  0  0  0  0  0  0  0  0  0  0  0
   55.0770 -133.0364   33.3665 H   0  0  0  0  0  0  0  0  0  0  0  0
   56.9651 -134.2341   37.0219 H   0  0  0  0  0  0  0  0  0  0  0  0
   52.8771 -133.1370   34.4793 H   0  0  0  0  0  0  0  0  0  0  0  0
   54.7647 -134.3434   38.1251 H   0  0  0  0  0  0  0  0  0  0  0  0
   52.7104 -133.7881   36.8619 H   0  0  0  0  0  0  0  0  0  0  0  0
   61.1256 -133.3565   35.1690 H   0  0  0  0  0  0  0  0  0  0  0  0
   63.0071 -135.5774   35.7717 H   0  0  0  0  0  0  0  0  0  0  0  0
   64.2386 -133.6126   36.9257 H   0  0  0  0  0  0  0  0  0  0  0  0
   62.9966 -132.5578   36.1697 H   0  0  0  0  0  0  0  0  0  0  0  0
   63.5042 -134.0335   33.9962 H   0  0  0  0  0  0  0  0  0  0  0  0
   65.2564 -132.3949   33.3236 H   0  0  0  0  0  0  0  0  0  0  0  0
   65.4619 -131.9141   35.0421 H   0  0  0  0  0  0  0  0  0  0  0  0
   63.9084 -131.5932   34.1992 H   0  0  0  0  0  0  0  0  0  0  0  0
   64.9984 -135.6459   35.1703 H   0  0  0  0  0  0  0  0  0  0  0  0
   66.1174 -134.3043   35.5877 H   0  0  0  0  0  0  0  0  0  0  0  0
   65.8758 -134.7709   33.8700 H   0  0  0  0  0  0  0  0  0  0  0  0
   62.9703 -136.6384   37.6332 H   0  0  0  0  0  0  0  0  0  0  0  0
   61.4050 -135.4870   39.9230 H   0  0  0  0  0  0  0  0  0  0  0  0
   61.3382 -137.9081   40.7205 H   0  0  0  0  0  0  0  0  0  0  0  0
   61.8984 -138.3574   39.0740 H   0  0  0  0  0  0  0  0  0  0  0  0
   60.5470 -138.1335   37.2111 H   0  0  0  0  0  0  0  0  0  0  0  0
   59.3344 -136.5700   41.0169 H   0  0  0  0  0  0  0  0  0  0  0  0
   58.2665 -137.7615   36.3320 H   0  0  0  0  0  0  0  0  0  0  0  0
   57.0536 -136.2009   40.1355 H   0  0  0  0  0  0  0  0  0  0  0  0
   56.5160 -136.7954   37.7924 H   0  0  0  0  0  0  0  0  0  0  0  0
   62.2185 -136.3054   42.0346 H   0  0  0  0  0  0  0  0  0  0  0  0
   65.2190 -136.1647   42.1250 H   0  0  0  0  0  0  0  0  0  0  0  0
   64.0635 -134.6925   44.2737 H   0  0  0  0  0  0  0  0  0  0  0  0
   63.0226 -134.3198   42.8580 H   0  0  0  0  0  0  0  0  0  0  0  0
   66.0587 -133.9511   43.0834 H   0  0  0  0  0  0  0  0  0  0  0  0
   65.4315 -131.5509   42.7217 H   0  0  0  0  0  0  0  0  0  0  0  0
   64.6360 -132.2258   44.1840 H   0  0  0  0  0  0  0  0  0  0  0  0
   63.6988 -132.0213   42.6653 H   0  0  0  0  0  0  0  0  0  0  0  0
   65.4796 -134.7287   40.7929 H   0  0  0  0  0  0  0  0  0  0  0  0
   65.9583 -132.9973   40.7936 H   0  0  0  0  0  0  0  0  0  0  0  0
   64.2238 -133.4496   40.6766 H   0  0  0  0  0  0  0  0  0  0  0  0
   64.9460 -136.6519   44.5616 H   0  0  0  0  0  0  0  0  0  0  0  0
   64.7614 -139.0513   44.5422 H   0  0  0  0  0  0  0  0  0  0  0  0
   66.0267 -139.7187   42.4762 H   0  0  0  0  0  0  0  0  0  0  0  0
   66.6525 -138.1579   43.1079 H   0  0  0  0  0  0  0  0  0  0  0  0
   65.5585 -138.1764   41.6833 H   0  0  0  0  0  0  0  0  0  0  0  0
   63.5838 -140.3148   42.7795 H   0  0  0  0  0  0  0  0  0  0  0  0
   63.3172 -138.8183   41.8223 H   0  0  0  0  0  0  0  0  0  0  0  0
   62.0988 -138.0165   43.6443 H   0  0  0  0  0  0  0  0  0  0  0  0
   62.2556 -137.3022   43.8899 H   0  0  0  0  0  0  0  0  0  0  0  0
  1  2  2  0  0  0  0
  1 10  1  0  0  0  0
  3  1  1  0  0  0  0
  3 53  1  0  0  0  0
  3 54  1  0  0  0  0
  4  3  1  0  0  0  0
  4  7  1  0  0  0  0
  4 55  1  0  0  0  0
  5  9  1  0  0  0  0
  6  4  1  0  0  0  0
  6  8  1  0  0  0  0
  6 56  1  0  0  0  0
  6 57  1  0  0  0  0
  7  9  1  0  0  0  0
  7 58  1  0  0  0  0
  7 59  1  0  0  0  0
  8  5  1  0  0  0  0
  8 60  1  0  0  0  0
  8 61  1  0  0  0  0
  9 62  1  0  0  0  0
  9 63  1  0  0  0  0
 10 11  1  0  0  0  0
 10 64  1  0  0  0  0
 11 12  1  0  0  0  0
 11 14  1  0  0  0  0
 11 65  1  6  0  0  0
 12 13  2  0  0  0  0
 12 22  1  0  0  0  0
 14 15  1  0  0  0  0
 14 66  1  0  0  0  0
 14 67  1  0  0  0  0
 15 16  1  0  0  0  0
 15 68  1  0  0  0  0
 15 69  1  0  0  0  0
 16 17  2  0  0  0  0
 16 18  1  0  0  0  0
 17 19  1  0  0  0  0
 17 70  1  0  0  0  0
 18 20  2  0  0  0  0
 18 71  1  0  0  0  0
 19 21  2  0  0  0  0
 19 72  1  0  0  0  0
 20 21  1  0  0  0  0
 20 73  1  0  0  0  0
 21 74  1  0  0  0  0
 22 23  1  0  0  0  0
 22 75  1  0  0  0  0
 23 24  1  0  0  0  0
 23 26  1  0  0  0  0
 23 76  1  6  0  0  0
 24 25  2  0  0  0  0
 24 30  1  0  0  0  0
 26 27  1  0  0  0  0
 26 77  1  0  0  0  0
 26 78  1  0  0  0  0
 27 28  1  0  0  0  0
 27 29  1  0  0  0  0
 27 79  1  0  0  0  0
 28 80  1  0  0  0  0
 28 81  1  0  0  0  0
 28 82  1  0  0  0  0
 29 83  1  0  0  0  0
 29 84  1  0  0  0  0
 29 85  1  0  0  0  0
 30 31  1  0  0  0  0
 30 86  1  0  0  0  0
 31 32  1  0  0  0  0
 31 34  1  0  0  0  0
 31 87  1  1  0  0  0
 32 33  2  0  0  0  0
 32 41  1  0  0  0  0
 34 35  1  0  0  0  0
 34 88  1  0  0  0  0
 34 89  1  0  0  0  0
 35 36  2  0  0  0  0
 35 37  1  0  0  0  0
 36 38  1  0  0  0  0
 36 90  1  0  0  0  0
 37 39  2  0  0  0  0
 37 91  1  0  0  0  0
 38 40  2  0  0  0  0
 38 92  1  0  0  0  0
 39 40  1  0  0  0  0
 39 93  1  0  0  0  0
 40 94  1  0  0  0  0
 41 42  1  0  0  0  0
 41 95  1  0  0  0  0
 42 43  1  0  0  0  0
 42 47  1  0  0  0  0
 42 96  1  6  0  0  0
 43 44  1  0  0  0  0
 43 97  1  0  0  0  0
 43 98  1  0  0  0  0
 44 45  1  0  0  0  0
 44 46  1  0  0  0  0
 44 99  1  0  0  0  0
 45100  1  0  0  0  0
 45101  1  0  0  0  0
 45102  1  0  0  0  0
 46103  1  0  0  0  0
 46104  1  0  0  0  0
 46105  1  0  0  0  0
 47 48  1  0  0  0  0
 47 52  1  0  0  0  0
 47106  1  1  0  0  0
 48 49  1  0  0  0  0
 48 50  1  0  0  0  0
 48107  1  1  0  0  0
 49108  1  0  0  0  0
 49109  1  0  0  0  0
 49110  1  0  0  0  0
 50 51  1  0  0  0  0
 50111  1  0  0  0  0
 50112  1  0  0  0  0
 51113  1  0  0  0  0
 52114  1  0  0  0  0
M  CHG  1   4   1
M  END
