4qwx_ligand
 OpenBabel08222323353D

 87 89  0  0  1  0  0  0  0  0999 V2000
   59.3460 -134.5200   34.7280 C   0  0  0  0  0  0  0  0  0  0  0  0
   59.3750 -135.7420   34.8710 O   0  0  0  0  0  0  0  0  0  0  0  0
   58.1870 -133.8550   33.9590 C   0  0  0  0  0  0  0  0  0  0  0  0
   57.0740 -133.8360   34.9040 N   0  3  0  0  0  0  0  0  0  0  0  0
   54.3610 -133.4550   35.3620 O   0  0  0  0  0  0  0  0  0  0  0  0
   56.1350 -134.9540   34.6600 C   0  0  0  0  0  0  0  0  0  0  0  0
   56.3940 -132.5370   34.8450 C   0  0  0  0  0  0  0  0  0  0  0  0
   54.9420 -134.7660   35.5090 C   0  0  0  0  0  0  0  0  0  0  0  0
   55.2860 -132.4630   35.8280 C   0  0  0  0  0  0  0  0  0  0  0  0
   60.2780 -133.6830   35.2240 N   0  0  0  0  0  0  0  0  0  0  0  0
   61.4200 -134.1890   36.0070 C   0  0  2  0  0  0  0  0  0  0  0  0
   60.9740 -134.3450   37.4610 C   0  0  0  0  0  0  0  0  0  0  0  0
   60.1440 -133.5820   37.9570 O   0  0  0  0  0  0  0  0  0  0  0  0
   62.6130 -133.2280   35.9460 C   0  0  0  0  0  0  0  0  0  0  0  0
   61.5540 -135.3540   38.1170 N   0  0  0  0  0  0  0  0  0  0  0  0
   61.2390 -135.6250   39.5190 C   0  0  1  0  0  0  0  0  0  0  0  0
   60.7220 -137.0230   39.6560 C   0  0  0  0  0  0  0  0  0  0  0  0
   59.3460 -136.9420   39.4500 C   0  0  0  0  0  0  0  0  0  0  0  0
   58.8280 -136.9910   38.1620 C   0  0  0  0  0  0  0  0  0  0  0  0
   57.4540 -136.9160   37.9540 C   0  0  0  0  0  0  0  0  0  0  0  0
   56.5770 -136.7960   39.0370 C   0  0  0  0  0  0  0  0  0  0  0  0
   55.2130 -136.7110   38.9200 O   0  0  0  0  0  0  0  0  0  0  0  0
   54.5360 -137.1290   37.7260 C   0  0  0  0  0  0  0  0  0  0  0  0
   57.1060 -136.7450   40.3250 C   0  0  0  0  0  0  0  0  0  0  0  0
   58.4790 -136.8180   40.5340 C   0  0  0  0  0  0  0  0  0  0  0  0
   62.5160 -135.4960   40.3390 C   0  0  0  0  0  0  0  0  0  0  0  0
   63.6220 -135.5590   39.8010 O   0  0  0  0  0  0  0  0  0  0  0  0
   62.2970 -135.3310   41.6520 N   0  0  0  0  0  0  0  0  0  0  0  0
   63.3800 -135.1670   42.6240 C   0  0  2  0  0  0  0  0  0  0  0  0
   63.2580 -136.2070   43.7530 C   0  0  1  0  0  0  0  0  0  0  0  0
   61.9370 -136.1380   44.2950 O   0  0  0  0  0  0  0  0  0  0  0  0
   63.5860 -137.7120   43.3800 C   0  0  2  0  0  0  0  0  0  0  0  0
   64.6930 -137.8090   42.2590 C   0  0  0  0  0  0  0  0  0  0  0  0
   62.3050 -138.3230   42.8150 C   0  0  0  0  0  0  0  0  0  0  0  0
   62.6580 -139.5330   42.1260 O   0  0  0  0  0  0  0  0  0  0  0  0
   63.2480 -133.7930   43.2700 C   0  0  0  0  0  0  0  0  0  0  0  0
   63.9950 -132.7760   42.6190 C   0  0  0  0  0  0  0  0  0  0  0  0
   64.8270 -132.9640   41.5020 C   0  0  0  0  0  0  0  0  0  0  0  0
   65.5090 -131.8840   40.9440 C   0  0  0  0  0  0  0  0  0  0  0  0
   65.3740 -130.6060   41.4790 C   0  0  0  0  0  0  0  0  0  0  0  0
   64.5520 -130.4020   42.5820 C   0  0  0  0  0  0  0  0  0  0  0  0
   63.8730 -131.4830   43.1400 C   0  0  0  0  0  0  0  0  0  0  0  0
   57.9270 -134.4425   33.0661 H   0  0  0  0  0  0  0  0  0  0  0  0
   58.4578 -132.8320   33.6588 H   0  0  0  0  0  0  0  0  0  0  0  0
   57.4505 -133.9492   35.8322 H   0  0  0  0  0  0  0  0  0  0  0  0
   56.6218 -135.9076   34.9122 H   0  0  0  0  0  0  0  0  0  0  0  0
   55.8376 -134.9628   33.6010 H   0  0  0  0  0  0  0  0  0  0  0  0
   55.9860 -132.3918   33.8338 H   0  0  0  0  0  0  0  0  0  0  0  0
   57.1214 -131.7416   35.0646 H   0  0  0  0  0  0  0  0  0  0  0  0
   54.1893 -135.5186   35.2314 H   0  0  0  0  0  0  0  0  0  0  0  0
   55.2316 -134.9076   36.5607 H   0  0  0  0  0  0  0  0  0  0  0  0
   55.6421 -132.7019   36.8410 H   0  0  0  0  0  0  0  0  0  0  0  0
   54.8254 -131.4641   35.8273 H   0  0  0  0  0  0  0  0  0  0  0  0
   60.1936 -132.7005   35.0580 H   0  0  0  0  0  0  0  0  0  0  0  0
   61.7271 -135.1668   35.6075 H   0  0  0  0  0  0  0  0  0  0  0  0
   63.4439 -133.6369   36.5397 H   0  0  0  0  0  0  0  0  0  0  0  0
   62.3174 -132.2501   36.3539 H   0  0  0  0  0  0  0  0  0  0  0  0
   62.9338 -133.1076   34.9007 H   0  0  0  0  0  0  0  0  0  0  0  0
   62.2151 -135.9340   37.6410 H   0  0  0  0  0  0  0  0  0  0  0  0
   60.4848 -134.9096   39.8787 H   0  0  0  0  0  0  0  0  0  0  0  0
   60.9362 -137.4136   40.6618 H   0  0  0  0  0  0  0  0  0  0  0  0
   61.1840 -137.6776   38.9024 H   0  0  0  0  0  0  0  0  0  0  0  0
   59.4973 -137.0881   37.3148 H   0  0  0  0  0  0  0  0  0  0  0  0
   57.0603 -136.9509   36.9446 H   0  0  0  0  0  0  0  0  0  0  0  0
   53.4533 -136.9755   37.8455 H   0  0  0  0  0  0  0  0  0  0  0  0
   54.7373 -138.1951   37.5444 H   0  0  0  0  0  0  0  0  0  0  0  0
   54.8982 -136.5369   36.8727 H   0  0  0  0  0  0  0  0  0  0  0  0
   56.4394 -136.6473   41.1742 H   0  0  0  0  0  0  0  0  0  0  0  0
   58.8756 -136.7784   41.5421 H   0  0  0  0  0  0  0  0  0  0  0  0
   61.3529 -135.3195   41.9815 H   0  0  0  0  0  0  0  0  0  0  0  0
   64.3527 -135.2661   42.1201 H   0  0  0  0  0  0  0  0  0  0  0  0
   63.9712 -135.9119   44.5367 H   0  0  0  0  0  0  0  0  0  0  0  0
   61.7823 -135.2662   44.6392 H   0  0  0  0  0  0  0  0  0  0  0  0
   63.9151 -138.2569   44.2771 H   0  0  0  0  0  0  0  0  0  0  0  0
   64.8910 -138.8665   42.0297 H   0  0  0  0  0  0  0  0  0  0  0  0
   65.6179 -137.3316   42.6147 H   0  0  0  0  0  0  0  0  0  0  0  0
   64.3416 -137.2966   41.3513 H   0  0  0  0  0  0  0  0  0  0  0  0
   61.8326 -137.6186   42.1145 H   0  0  0  0  0  0  0  0  0  0  0  0
   61.6065 -138.5498   43.6340 H   0  0  0  0  0  0  0  0  0  0  0  0
   63.2638 -139.3305   41.4228 H   0  0  0  0  0  0  0  0  0  0  0  0
   63.5956 -133.8651   44.3111 H   0  0  0  0  0  0  0  0  0  0  0  0
   62.1865 -133.5049   43.2570 H   0  0  0  0  0  0  0  0  0  0  0  0
   64.9388 -133.9530   41.0726 H   0  0  0  0  0  0  0  0  0  0  0  0
   66.1510 -132.0409   40.0848 H   0  0  0  0  0  0  0  0  0  0  0  0
   65.9079 -129.7724   41.0372 H   0  0  0  0  0  0  0  0  0  0  0  0
   64.4405 -129.4099   43.0042 H   0  0  0  0  0  0  0  0  0  0  0  0
   63.2338 -131.3182   43.9998 H   0  0  0  0  0  0  0  0  0  0  0  0
  1  2  2  0  0  0  0
  1 10  1  0  0  0  0
  3  1  1  0  0  0  0
  3 43  1  0  0  0  0
  3 44  1  0  0  0  0
  4  3  1  0  0  0  0
  4  7  1  0  0  0  0
  4 45  1  0  0  0  0
  5  9  1  0  0  0  0
  6  4  1  0  0  0  0
  6  8  1  0  0  0  0
  6 46  1  0  0  0  0
  6 47  1  0  0  0  0
  7  9  1  0  0  0  0
  7 48  1  0  0  0  0
  7 49  1  0  0  0  0
  8  5  1  0  0  0  0
  8 50  1  0  0  0  0
  8 51  1  0  0  0  0
  9 52  1  0  0  0  0
  9 53  1  0  0  0  0
 10 11  1  0  0  0  0
 10 54  1  0  0  0  0
 11 12  1  0  0  0  0
 11 14  1  0  0  0  0
 11 55  1  6  0  0  0
 12 13  2  0  0  0  0
 12 15  1  0  0  0  0
 14 56  1  0  0  0  0
 14 57  1  0  0  0  0
 14 58  1  0  0  0  0
 15 16  1  0  0  0  0
 15 59  1  0  0  0  0
 16 17  1  0  0  0  0
 16 26  1  0  0  0  0
 16 60  1  1  0  0  0
 17 18  1  0  0  0  0
 17 61  1  0  0  0  0
 17 62  1  0  0  0  0
 18 19  2  0  0  0  0
 18 25  1  0  0  0  0
 19 20  1  0  0  0  0
 19 63  1  0  0  0  0
 20 21  2  0  0  0  0
 20 64  1  0  0  0  0
 21 22  1  0  0  0  0
 21 24  1  0  0  0  0
 22 23  1  0  0  0  0
 23 65  1  0  0  0  0
 23 66  1  0  0  0  0
 23 67  1  0  0  0  0
 24 25  2  0  0  0  0
 24 68  1  0  0  0  0
 25 69  1  0  0  0  0
 26 27  2  0  0  0  0
 26 28  1  0  0  0  0
 28 29  1  0  0  0  0
 28 70  1  0  0  0  0
 29 30  1  0  0  0  0
 29 36  1  0  0  0  0
 29 71  1  6  0  0  0
 30 31  1  0  0  0  0
 30 32  1  0  0  0  0
 30 72  1  1  0  0  0
 31 73  1  0  0  0  0
 32 33  1  0  0  0  0
 32 34  1  0  0  0  0
 32 74  1  1  0  0  0
 33 75  1  0  0  0  0
 33 76  1  0  0  0  0
 33 77  1  0  0  0  0
 34 35  1  0  0  0  0
 34 78  1  0  0  0  0
 34 79  1  0  0  0  0
 35 80  1  0  0  0  0
 36 37  1  0  0  0  0
 36 81  1  0  0  0  0
 36 82  1  0  0  0  0
 37 38  2  0  0  0  0
 37 42  1  0  0  0  0
 38 39  1  0  0  0  0
 38 83  1  0  0  0  0
 39 40  2  0  0  0  0
 39 84  1  0  0  0  0
 40 41  1  0  0  0  0
 40 85  1  0  0  0  0
 41 42  2  0  0  0  0
 41 86  1  0  0  0  0
 42 87  1  0  0  0  0
M  CHG  1   4   1
M  END
