4qxj_ligand
 OpenBabel08222323353D

 87 89  0  0  1  0  0  0  0  0999 V2000
   59.8840 -134.6610   34.6460 C   0  0  0  0  0  0  0  0  0  0  0  0
   60.0050 -135.8730   34.8260 O   0  0  0  0  0  0  0  0  0  0  0  0
   58.7140 -134.1040   33.8180 C   0  0  0  0  0  0  0  0  0  0  0  0
   57.6790 -133.7480   34.7880 N   0  3  0  0  0  0  0  0  0  0  0  0
   55.0410 -133.1120   35.3720 O   0  0  0  0  0  0  0  0  0  0  0  0
   56.6980 -134.8450   34.9450 C   0  0  0  0  0  0  0  0  0  0  0  0
   57.0220 -132.5050   34.3720 C   0  0  0  0  0  0  0  0  0  0  0  0
   55.5850 -134.3710   35.8000 C   0  0  0  0  0  0  0  0  0  0  0  0
   56.0280 -132.0710   35.3800 C   0  0  0  0  0  0  0  0  0  0  0  0
   60.7240 -133.7380   35.1400 N   0  0  0  0  0  0  0  0  0  0  0  0
   61.8810 -134.1180   35.9640 C   0  0  2  0  0  0  0  0  0  0  0  0
   61.4410 -134.2220   37.4270 C   0  0  0  0  0  0  0  0  0  0  0  0
   60.6040 -133.4530   37.9040 O   0  0  0  0  0  0  0  0  0  0  0  0
   63.0000 -133.0830   35.8240 C   0  0  0  0  0  0  0  0  0  0  0  0
   62.0330 -135.2130   38.1030 N   0  0  0  0  0  0  0  0  0  0  0  0
   61.7320 -135.4760   39.5080 C   0  0  1  0  0  0  0  0  0  0  0  0
   61.1920 -136.8720   39.6350 C   0  0  0  0  0  0  0  0  0  0  0  0
   59.8070 -136.8050   39.4810 C   0  0  0  0  0  0  0  0  0  0  0  0
   59.2160 -137.0090   38.2370 C   0  0  0  0  0  0  0  0  0  0  0  0
   57.8310 -136.9560   38.0960 C   0  0  0  0  0  0  0  0  0  0  0  0
   57.0180 -136.6960   39.2080 C   0  0  0  0  0  0  0  0  0  0  0  0
   55.6460 -136.6300   39.1870 O   0  0  0  0  0  0  0  0  0  0  0  0
   54.9250 -136.5930   37.9520 C   0  0  0  0  0  0  0  0  0  0  0  0
   57.6190 -136.5030   40.4470 C   0  0  0  0  0  0  0  0  0  0  0  0
   58.9990 -136.5560   40.5870 C   0  0  0  0  0  0  0  0  0  0  0  0
   63.0350 -135.3950   40.2950 C   0  0  0  0  0  0  0  0  0  0  0  0
   64.1230 -135.5500   39.7370 O   0  0  0  0  0  0  0  0  0  0  0  0
   62.8610 -135.1690   41.6050 N   0  0  0  0  0  0  0  0  0  0  0  0
   63.9750 -135.0530   42.5460 C   0  0  2  0  0  0  0  0  0  0  0  0
   63.8100 -136.0960   43.6720 C   0  0  1  0  0  0  0  0  0  0  0  0
   62.4620 -136.0380   44.1460 O   0  0  0  0  0  0  0  0  0  0  0  0
   64.1900 -137.6090   43.3140 C   0  0  2  0  0  0  0  0  0  0  0  0
   65.3180 -137.6760   42.2190 C   0  0  0  0  0  0  0  0  0  0  0  0
   62.9240 -138.2580   42.7510 C   0  0  0  0  0  0  0  0  0  0  0  0
   63.3330 -139.3740   41.9450 O   0  0  0  0  0  0  0  0  0  0  0  0
   63.9190 -133.6810   43.2030 C   0  0  0  0  0  0  0  0  0  0  0  0
   64.6550 -132.6780   42.5320 C   0  0  0  0  0  0  0  0  0  0  0  0
   65.5000 -132.8850   41.4320 C   0  0  0  0  0  0  0  0  0  0  0  0
   66.1710 -131.8070   40.8550 C   0  0  0  0  0  0  0  0  0  0  0  0
   66.0120 -130.5170   41.3600 C   0  0  0  0  0  0  0  0  0  0  0  0
   65.1760 -130.2970   42.4470 C   0  0  0  0  0  0  0  0  0  0  0  0
   64.5110 -131.3770   43.0220 C   0  0  0  0  0  0  0  0  0  0  0  0
   58.3397 -134.8676   33.1203 H   0  0  0  0  0  0  0  0  0  0  0  0
   59.0323 -133.2155   33.2530 H   0  0  0  0  0  0  0  0  0  0  0  0
   58.1195 -133.5914   35.6810 H   0  0  0  0  0  0  0  0  0  0  0  0
   57.1843 -135.7111   35.4176 H   0  0  0  0  0  0  0  0  0  0  0  0
   56.3082 -135.1364   33.9586 H   0  0  0  0  0  0  0  0  0  0  0  0
   56.5122 -132.6708   33.4115 H   0  0  0  0  0  0  0  0  0  0  0  0
   57.7815 -131.7183   34.2530 H   0  0  0  0  0  0  0  0  0  0  0  0
   54.7831 -135.1237   35.7796 H   0  0  0  0  0  0  0  0  0  0  0  0
   55.9573 -134.2596   36.8291 H   0  0  0  0  0  0  0  0  0  0  0  0
   56.4929 -131.9818   36.3729 H   0  0  0  0  0  0  0  0  0  0  0  0
   55.5805 -131.1069   35.0966 H   0  0  0  0  0  0  0  0  0  0  0  0
   60.5595 -132.7714   34.9435 H   0  0  0  0  0  0  0  0  0  0  0  0
   62.2562 -135.0962   35.6289 H   0  0  0  0  0  0  0  0  0  0  0  0
   63.8564 -133.3825   36.4461 H   0  0  0  0  0  0  0  0  0  0  0  0
   62.6334 -132.0997   36.1538 H   0  0  0  0  0  0  0  0  0  0  0  0
   63.3145 -133.0230   34.7716 H   0  0  0  0  0  0  0  0  0  0  0  0
   62.7007 -135.7903   37.6330 H   0  0  0  0  0  0  0  0  0  0  0  0
   61.0033 -134.7454   39.8892 H   0  0  0  0  0  0  0  0  0  0  0  0
   61.4397 -137.2812   40.6255 H   0  0  0  0  0  0  0  0  0  0  0  0
   61.6254 -137.5142   38.8541 H   0  0  0  0  0  0  0  0  0  0  0  0
   59.8378 -137.2105   37.3722 H   0  0  0  0  0  0  0  0  0  0  0  0
   57.3805 -137.1163   37.1232 H   0  0  0  0  0  0  0  0  0  0  0  0
   53.8459 -136.5415   38.1589 H   0  0  0  0  0  0  0  0  0  0  0  0
   55.1442 -137.5016   37.3721 H   0  0  0  0  0  0  0  0  0  0  0  0
   55.2304 -135.7074   37.3755 H   0  0  0  0  0  0  0  0  0  0  0  0
   57.0010 -136.3084   41.3160 H   0  0  0  0  0  0  0  0  0  0  0  0
   59.4492 -136.4029   41.5611 H   0  0  0  0  0  0  0  0  0  0  0  0
   61.9286 -135.0756   41.9542 H   0  0  0  0  0  0  0  0  0  0  0  0
   64.9318 -135.1962   42.0226 H   0  0  0  0  0  0  0  0  0  0  0  0
   64.4773 -135.7896   44.4910 H   0  0  0  0  0  0  0  0  0  0  0  0
   62.2821 -135.1669   44.4799 H   0  0  0  0  0  0  0  0  0  0  0  0
   64.5239 -138.1365   44.2197 H   0  0  0  0  0  0  0  0  0  0  0  0
   65.5529 -138.7278   41.9985 H   0  0  0  0  0  0  0  0  0  0  0  0
   66.2205 -137.1689   42.5908 H   0  0  0  0  0  0  0  0  0  0  0  0
   64.9691 -137.1783   41.3022 H   0  0  0  0  0  0  0  0  0  0  0  0
   62.3719 -137.5325   42.1355 H   0  0  0  0  0  0  0  0  0  0  0  0
   62.2817 -138.6045   43.5740 H   0  0  0  0  0  0  0  0  0  0  0  0
   63.8907 -139.0666   41.2401 H   0  0  0  0  0  0  0  0  0  0  0  0
   64.3165 -133.7730   44.2245 H   0  0  0  0  0  0  0  0  0  0  0  0
   62.8667 -133.3637   43.2462 H   0  0  0  0  0  0  0  0  0  0  0  0
   65.6317 -133.8831   41.0301 H   0  0  0  0  0  0  0  0  0  0  0  0
   66.8229 -131.9737   40.0051 H   0  0  0  0  0  0  0  0  0  0  0  0
   66.5402 -129.6870   40.9048 H   0  0  0  0  0  0  0  0  0  0  0  0
   65.0428 -129.2968   42.8430 H   0  0  0  0  0  0  0  0  0  0  0  0
   63.8633 -131.2037   43.8738 H   0  0  0  0  0  0  0  0  0  0  0  0
  1  2  2  0  0  0  0
  1 10  1  0  0  0  0
  3  1  1  0  0  0  0
  3 43  1  0  0  0  0
  3 44  1  0  0  0  0
  4  3  1  0  0  0  0
  4  7  1  0  0  0  0
  4 45  1  0  0  0  0
  5  9  1  0  0  0  0
  6  4  1  0  0  0  0
  6  8  1  0  0  0  0
  6 46  1  0  0  0  0
  6 47  1  0  0  0  0
  7  9  1  0  0  0  0
  7 48  1  0  0  0  0
  7 49  1  0  0  0  0
  8  5  1  0  0  0  0
  8 50  1  0  0  0  0
  8 51  1  0  0  0  0
  9 52  1  0  0  0  0
  9 53  1  0  0  0  0
 10 11  1  0  0  0  0
 10 54  1  0  0  0  0
 11 12  1  0  0  0  0
 11 14  1  0  0  0  0
 11 55  1  6  0  0  0
 12 13  2  0  0  0  0
 12 15  1  0  0  0  0
 14 56  1  0  0  0  0
 14 57  1  0  0  0  0
 14 58  1  0  0  0  0
 15 16  1  0  0  0  0
 15 59  1  0  0  0  0
 16 17  1  0  0  0  0
 16 26  1  0  0  0  0
 16 60  1  1  0  0  0
 17 18  1  0  0  0  0
 17 61  1  0  0  0  0
 17 62  1  0  0  0  0
 18 19  2  0  0  0  0
 18 25  1  0  0  0  0
 19 20  1  0  0  0  0
 19 63  1  0  0  0  0
 20 21  2  0  0  0  0
 20 64  1  0  0  0  0
 21 22  1  0  0  0  0
 21 24  1  0  0  0  0
 22 23  1  0  0  0  0
 23 65  1  0  0  0  0
 23 66  1  0  0  0  0
 23 67  1  0  0  0  0
 24 25  2  0  0  0  0
 24 68  1  0  0  0  0
 25 69  1  0  0  0  0
 26 27  2  0  0  0  0
 26 28  1  0  0  0  0
 28 29  1  0  0  0  0
 28 70  1  0  0  0  0
 29 30  1  0  0  0  0
 29 36  1  0  0  0  0
 29 71  1  6  0  0  0
 30 31  1  0  0  0  0
 30 32  1  0  0  0  0
 30 72  1  1  0  0  0
 31 73  1  0  0  0  0
 32 33  1  0  0  0  0
 32 34  1  0  0  0  0
 32 74  1  1  0  0  0
 33 75  1  0  0  0  0
 33 76  1  0  0  0  0
 33 77  1  0  0  0  0
 34 35  1  0  0  0  0
 34 78  1  0  0  0  0
 34 79  1  0  0  0  0
 35 80  1  0  0  0  0
 36 37  1  0  0  0  0
 36 81  1  0  0  0  0
 36 82  1  0  0  0  0
 37 38  2  0  0  0  0
 37 42  1  0  0  0  0
 38 39  1  0  0  0  0
 38 83  1  0  0  0  0
 39 40  2  0  0  0  0
 39 84  1  0  0  0  0
 40 41  1  0  0  0  0
 40 85  1  0  0  0  0
 41 42  2  0  0  0  0
 41 86  1  0  0  0  0
 42 87  1  0  0  0  0
M  CHG  1   4   1
M  END
