4qxs_ligand
 OpenBabel08222323353D

 53 55  0  0  1  0  0  0  0  0999 V2000
    7.9300   72.6130   25.5350 O   0  0  0  0  0  1  0  0  0  0  0  0
    7.6630   73.7670   26.5890 P   0  0  0  0  0  0  0  0  0  0  0  0
    8.8890   74.5930   26.8600 O   0  0  0  0  0  1  0  0  0  0  0  0
    6.3550   74.4170   26.2690 O   0  0  0  0  0  0  0  0  0  0  0  0
    7.3540   72.8160   28.1670 C   0  0  0  0  0  0  0  0  0  0  0  0
    8.8980   71.9870   28.7380 P   0  0  0  0  0  0  0  0  0  0  0  0
    8.3630   71.1070   30.0240 O   0  0  0  0  0  1  0  0  0  0  0  0
    9.2570   71.1840   27.6330 O   0  0  0  0  0  1  0  0  0  0  0  0
    9.7410   72.9620   29.3860 O   0  0  0  0  0  0  0  0  0  0  0  0
    6.2520   71.7900   27.9580 C   0  0  0  0  0  0  0  0  0  0  0  0
    5.2230   71.8720   29.1270 C   0  0  0  0  0  0  0  0  0  0  0  0
    4.9130   70.8900   29.9870 C   0  0  0  0  0  0  0  0  0  0  0  0
    5.4890   69.4620   30.1390 C   0  0  1  0  0  0  0  0  0  0  0  0
    6.0110   69.2840   31.6050 C   0  0  0  0  0  0  0  0  0  0  0  0
    4.4700   68.4320   29.8670 C   0  0  0  0  0  0  0  0  0  0  0  0
    4.1040   68.5200   28.3790 C   0  0  0  0  0  0  0  0  0  0  0  0
    5.1240   67.0630   30.2220 C   0  0  0  0  0  0  0  0  0  0  0  0
    4.0070   71.3450   30.8530 N   0  0  0  0  0  0  0  0  0  0  0  0
    3.6890   72.6080   30.5430 C   0  0  0  0  0  0  0  0  0  0  0  0
    2.8370   73.4550   31.1430 C   0  0  0  0  0  0  0  0  0  0  0  0
    2.6930   74.7390   30.6710 C   0  0  0  0  0  0  0  0  0  0  0  0
    4.4670   72.9730   29.4910 C   0  0  0  0  0  0  0  0  0  0  0  0
    4.3210   74.2150   29.0070 C   0  0  0  0  0  0  0  0  0  0  0  0
    3.4390   75.1510   29.5600 C   0  0  0  0  0  0  0  0  0  0  0  0
    3.3680   76.4910   29.0910 C   0  0  0  0  0  0  0  0  0  0  0  0
    4.5850   77.1960   28.9000 C   0  0  0  0  0  0  0  0  0  0  0  0
    4.6450   78.5110   28.4980 C   0  0  0  0  0  0  0  0  0  0  0  0
    3.4550   79.1800   28.2630 C   0  0  0  0  0  0  0  0  0  0  0  0
    2.2500   78.5020   28.4440 C   0  0  0  0  0  0  0  0  0  0  0  0
    2.1830   77.1840   28.8950 C   0  0  0  0  0  0  0  0  0  0  0  0
    7.0302   73.5244   28.9437 H   0  0  0  0  0  0  0  0  0  0  0  0
    6.6922   70.7823   27.9295 H   0  0  0  0  0  0  0  0  0  0  0  0
    5.7397   71.9935   27.0061 H   0  0  0  0  0  0  0  0  0  0  0  0
    6.3230   69.3351   29.4330 H   0  0  0  0  0  0  0  0  0  0  0  0
    6.7726   70.0485   31.8184 H   0  0  0  0  0  0  0  0  0  0  0  0
    6.4542   68.2835   31.7175 H   0  0  0  0  0  0  0  0  0  0  0  0
    5.1729   69.3951   32.3087 H   0  0  0  0  0  0  0  0  0  0  0  0
    3.5729   68.5937   30.4827 H   0  0  0  0  0  0  0  0  0  0  0  0
    3.3430   67.7616   28.1431 H   0  0  0  0  0  0  0  0  0  0  0  0
    5.0018   68.3405   27.7693 H   0  0  0  0  0  0  0  0  0  0  0  0
    3.7048   69.5209   28.1581 H   0  0  0  0  0  0  0  0  0  0  0  0
    5.3701   67.0412   31.2939 H   0  0  0  0  0  0  0  0  0  0  0  0
    6.0431   66.9317   29.6320 H   0  0  0  0  0  0  0  0  0  0  0  0
    4.4205   66.2496   29.9908 H   0  0  0  0  0  0  0  0  0  0  0  0
    3.6129   70.8081   31.6387 H   0  0  0  0  0  0  0  0  0  0  0  0
    2.2617   73.1263   32.0009 H   0  0  0  0  0  0  0  0  0  0  0  0
    2.0080   75.4258   31.1549 H   0  0  0  0  0  0  0  0  0  0  0  0
    4.9134   74.5078   28.1477 H   0  0  0  0  0  0  0  0  0  0  0  0
    5.5162   76.6712   29.0802 H   0  0  0  0  0  0  0  0  0  0  0  0
    5.5985   79.0101   28.3687 H   0  0  0  0  0  0  0  0  0  0  0  0
    3.4604   80.2157   27.9430 H   0  0  0  0  0  0  0  0  0  0  0  0
    1.3247   79.0222   28.2245 H   0  0  0  0  0  0  0  0  0  0  0  0
    1.2264   76.7121   29.0879 H   0  0  0  0  0  0  0  0  0  0  0  0
  1  2  1  0  0  0  0
  2  3  1  0  0  0  0
  2  4  2  0  0  0  0
  2  5  1  0  0  0  0
  5  6  1  0  0  0  0
  5 10  1  0  0  0  0
  5 31  1  0  0  0  0
  6  7  1  0  0  0  0
  6  8  1  0  0  0  0
  6  9  2  0  0  0  0
 10 11  1  0  0  0  0
 10 32  1  0  0  0  0
 10 33  1  0  0  0  0
 11 12  2  0  0  0  0
 11 22  1  0  0  0  0
 12 13  1  0  0  0  0
 12 18  1  0  0  0  0
 13 14  1  0  0  0  0
 13 15  1  0  0  0  0
 13 34  1  6  0  0  0
 14 35  1  0  0  0  0
 14 36  1  0  0  0  0
 14 37  1  0  0  0  0
 15 16  1  0  0  0  0
 15 17  1  0  0  0  0
 15 38  1  0  0  0  0
 16 39  1  0  0  0  0
 16 40  1  0  0  0  0
 16 41  1  0  0  0  0
 17 42  1  0  0  0  0
 17 43  1  0  0  0  0
 17 44  1  0  0  0  0
 18 19  1  0  0  0  0
 18 45  1  0  0  0  0
 19 20  2  0  0  0  0
 19 22  1  0  0  0  0
 20 21  1  0  0  0  0
 20 46  1  0  0  0  0
 21 24  2  0  0  0  0
 21 47  1  0  0  0  0
 22 23  2  0  0  0  0
 23 24  1  0  0  0  0
 23 48  1  0  0  0  0
 24 25  1  0  0  0  0
 25 26  2  0  0  0  0
 25 30  1  0  0  0  0
 26 27  1  0  0  0  0
 26 49  1  0  0  0  0
 27 28  2  0  0  0  0
 27 50  1  0  0  0  0
 28 29  1  0  0  0  0
 28 51  1  0  0  0  0
 29 30  2  0  0  0  0
 29 52  1  0  0  0  0
 30 53  1  0  0  0  0
M  END
