4qxt_ligand
 OpenBabel08222323353D

172172  0  0  1  0  0  0  0  0999 V2000
  -17.4000  -20.6240  -20.2580 C   0  0  0  0  0  0  0  0  0  0  0  0
  -17.0600  -20.5300  -19.0780 O   0  0  0  0  0  0  0  0  0  0  0  0
  -18.7070  -20.0500  -20.7260 C   0  0  0  0  0  0  0  0  0  0  0  0
  -16.8430  -21.4750  -21.1250 N   0  0  0  0  0  0  0  0  0  0  0  0
  -15.5770  -22.1980  -20.9470 C   0  0  2  0  0  0  0  0  0  0  0  0
  -14.3170  -21.3490  -21.1930 C   0  0  0  0  0  0  0  0  0  0  0  0
  -13.9090  -21.1040  -22.3240 O   0  0  0  0  0  0  0  0  0  0  0  0
  -15.5540  -23.4170  -21.8600 C   0  0  0  0  0  0  0  0  0  0  0  0
  -14.3840  -24.3300  -21.5680 C   0  0  0  0  0  0  0  0  0  0  0  0
  -13.5620  -24.0340  -20.6940 O   0  0  0  0  0  0  0  0  0  0  0  0
  -14.3050  -25.4600  -22.2920 N   0  0  0  0  0  0  0  0  0  0  0  0
  -13.6780  -20.9660  -20.1040 N   0  0  0  0  0  0  0  0  0  0  0  0
  -12.5520  -20.0440  -20.1050 C   0  0  2  0  0  0  0  0  0  0  0  0
  -11.2080  -20.7390  -20.2500 C   0  0  0  0  0  0  0  0  0  0  0  0
  -10.1680  -20.0770  -20.3210 O   0  0  0  0  0  0  0  0  0  0  0  0
  -12.5570  -19.2450  -18.7980 C   0  0  0  0  0  0  0  0  0  0  0  0
  -11.2100  -22.0650  -20.2440 N   0  0  0  0  0  0  0  0  0  0  0  0
   -9.9390  -22.7880  -20.2460 C   0  0  2  0  0  0  0  0  0  0  0  0
   -9.1200  -22.4790  -21.4910 C   0  0  0  0  0  0  0  0  0  0  0  0
   -7.9190  -22.2310  -21.4140 O   0  0  0  0  0  0  0  0  0  0  0  0
  -10.1900  -24.2850  -20.1530 C   0  0  0  0  0  0  0  0  0  0  0  0
   -8.9450  -25.1590  -20.2380 C   0  0  0  0  0  0  0  0  0  0  0  0
   -8.3220  -25.4140  -21.4550 C   0  0  0  0  0  0  0  0  0  0  0  0
   -8.4230  -25.7580  -19.0980 C   0  0  0  0  0  0  0  0  0  0  0  0
   -7.2080  -26.2460  -21.5350 C   0  0  0  0  0  0  0  0  0  0  0  0
   -7.3080  -26.5770  -19.1660 C   0  0  0  0  0  0  0  0  0  0  0  0
   -6.7040  -26.8060  -20.3870 C   0  0  0  0  0  0  0  0  0  0  0  0
   -5.6040  -27.6430  -20.4690 O   0  0  0  0  0  0  0  0  0  0  0  0
   -9.7740  -22.4920  -22.6400 N   0  0  0  0  0  0  0  0  0  0  0  0
   -9.0550  -22.3790  -23.9020 C   0  0  2  0  0  0  0  0  0  0  0  0
   -8.5590  -20.9780  -24.2150 C   0  0  0  0  0  0  0  0  0  0  0  0
   -7.5110  -20.8110  -24.8500 O   0  0  0  0  0  0  0  0  0  0  0  0
   -9.9570  -22.8910  -25.0190 C   0  0  0  0  0  0  0  0  0  0  0  0
  -10.3880  -24.3210  -24.7760 C   0  0  0  0  0  0  0  0  0  0  0  0
   -9.5460  -25.1990  -24.6520 O   0  0  0  0  0  0  0  0  0  0  0  0
  -11.6990  -24.5600  -24.6610 N   0  0  0  0  0  0  0  0  0  0  0  0
   -9.3180  -19.9720  -23.7950 N   0  0  0  0  0  0  0  0  0  0  0  0
   -9.1070  -18.6200  -24.2890 C   0  0  2  0  0  0  0  0  0  0  0  0
   -8.8390  -17.5790  -23.2110 C   0  0  0  0  0  0  0  0  0  0  0  0
   -8.5940  -16.4270  -23.5560 O   0  0  0  0  0  0  0  0  0  0  0  0
  -10.3170  -18.1840  -25.1040 C   0  0  0  0  0  0  0  0  0  0  0  0
  -10.6960  -19.1900  -26.1880 C   0  0  0  0  0  0  0  0  0  0  0  0
   -9.8820  -18.7440  -27.7190 S   0  0  0  0  0  0  0  0  0  0  0  0
  -10.7620  -17.2320  -28.0220 C   0  0  0  0  0  0  0  0  0  0  0  0
   -8.8710  -17.9420  -21.9270 N   0  0  0  0  0  0  0  0  0  0  0  0
   -8.5450  -16.9250  -20.9240 C   0  0  2  0  0  0  0  0  0  0  0  0
   -7.0350  -16.7200  -20.8240 C   0  0  0  0  0  0  0  0  0  0  0  0
   -6.5820  -15.7460  -20.2080 O   0  0  0  0  0  0  0  0  0  0  0  0
   -9.1590  -17.2240  -19.5310 C   0  0  0  0  0  0  0  0  0  0  0  0
   -8.6180  -18.3870  -18.9070 O   0  0  0  0  0  0  0  0  0  0  0  0
   -6.2750  -17.6290  -21.4280 N   0  0  0  0  0  0  0  0  0  0  0  0
   -4.8670  -17.3780  -21.7540 C   0  0  2  0  0  0  0  0  0  0  0  0
   -4.6460  -17.7140  -23.2230 C   0  0  0  0  0  0  0  0  0  0  0  0
   -5.4060  -18.4830  -23.8180 O   0  0  0  0  0  0  0  0  0  0  0  0
   -3.8830  -18.2080  -20.8980 C   0  0  2  0  0  0  0  0  0  0  0  0
   -4.0100  -19.6940  -21.2410 C   0  0  0  0  0  0  0  0  0  0  0  0
   -4.0880  -17.9600  -19.4010 C   0  0  0  0  0  0  0  0  0  0  0  0
   -2.8340  -20.5650  -20.7030 C   0  0  0  0  0  0  0  0  0  0  0  0
   -3.6030  -17.1510  -23.8210 N   0  0  0  0  0  0  0  0  0  0  0  0
   -3.2500  -17.5470  -25.1720 C   0  0  2  0  0  0  0  0  0  0  0  0
   -2.4240  -18.8100  -25.1240 C   0  0  0  0  0  0  0  0  0  0  0  0
   -1.3780  -18.8540  -24.4710 O   0  0  0  0  0  0  0  0  0  0  0  0
   -2.4890  -16.4410  -25.8960 C   0  0  0  0  0  0  0  0  0  0  0  0
   -2.0370  -16.8920  -27.2780 C   0  0  0  0  0  0  0  0  0  0  0  0
   -1.7970  -15.7110  -28.1720 C   0  0  0  0  0  0  0  0  0  0  0  0
   -0.5170  -15.0980  -27.8840 N   0  0  0  0  0  0  0  0  0  0  0  0
    0.5810  -15.3210  -28.5990 C   0  0  0  0  0  3  0  0  0  0  0  0
    0.5360  -16.1490  -29.6310 N   0  0  0  0  0  0  0  0  0  0  0  0
    1.7200  -14.7200  -28.2740 N   0  0  0  0  0  0  0  0  0  0  0  0
   -2.9110  -19.8540  -25.7880 N   0  0  0  0  0  0  0  0  0  0  0  0
   -2.2160  -21.1380  -25.7960 C   0  0  2  0  0  0  0  0  0  0  0  0
   -1.4850  -21.3510  -27.1170 C   0  0  0  0  0  0  0  0  0  0  0  0
   -2.0850  -21.7390  -28.1130 O   0  0  0  0  0  0  0  0  0  0  0  0
   -3.2160  -22.2760  -25.5230 C   0  0  0  0  0  0  0  0  0  0  0  0
   -3.8150  -22.2140  -24.1160 C   0  0  0  0  0  0  0  0  0  0  0  0
   -4.7420  -23.4100  -23.8310 C   0  0  0  0  0  0  0  0  0  0  0  0
   -5.3740  -23.2260  -22.5280 N   0  0  0  0  0  0  0  0  0  0  0  0
   -4.8890  -23.6800  -21.3760 C   0  0  0  0  0  3  0  0  0  0  0  0
   -3.7660  -24.3880  -21.3490 N   0  0  0  0  0  0  0  0  0  0  0  0
   -5.5500  -23.4410  -20.2440 N   0  0  0  0  0  0  0  0  0  0  0  0
   -0.1800  -21.0710  -27.1030 N   0  0  0  0  0  0  0  0  0  0  0  0
    0.6890  -21.1730  -28.2780 C   0  0  2  0  0  0  0  0  0  0  0  0
    1.9840  -21.9080  -27.9190 C   0  0  0  0  0  0  0  0  0  0  0  0
    2.6300  -22.5200  -28.7790 O   0  5  0  0  0  0  0  0  0  0  0  0
    1.0240  -19.7840  -28.8320 C   0  0  0  0  0  0  0  0  0  0  0  0
   -0.1310  -19.1040  -29.3080 O   0  0  0  0  0  0  0  0  0  0  0  0
    2.4170  -21.9090  -26.7600 O   0  0  0  0  0  0  0  0  0  0  0  0
  -18.8244  -20.2365  -21.8037 H   0  0  0  0  0  0  0  0  0  0  0  0
  -18.7199  -18.9663  -20.5380 H   0  0  0  0  0  0  0  0  0  0  0  0
  -19.5337  -20.5269  -20.1791 H   0  0  0  0  0  0  0  0  0  0  0  0
  -17.3371  -21.6354  -21.9795 H   0  0  0  0  0  0  0  0  0  0  0  0
  -15.5409  -22.5453  -19.9039 H   0  0  0  0  0  0  0  0  0  0  0  0
  -15.4851  -23.0763  -22.9036 H   0  0  0  0  0  0  0  0  0  0  0  0
  -16.4873  -23.9820  -21.7196 H   0  0  0  0  0  0  0  0  0  0  0  0
  -13.5515  -26.0996  -22.1399 H   0  0  0  0  0  0  0  0  0  0  0  0
  -14.9997  -25.6609  -22.9826 H   0  0  0  0  0  0  0  0  0  0  0  0
  -13.9858  -21.3311  -19.2254 H   0  0  0  0  0  0  0  0  0  0  0  0
  -12.6752  -19.3515  -20.9507 H   0  0  0  0  0  0  0  0  0  0  0  0
  -11.7078  -18.5458  -18.7925 H   0  0  0  0  0  0  0  0  0  0  0  0
  -12.4692  -19.9352  -17.9460 H   0  0  0  0  0  0  0  0  0  0  0  0
  -13.4975  -18.6802  -18.7171 H   0  0  0  0  0  0  0  0  0  0  0  0
  -12.0748  -22.5671  -20.2381 H   0  0  0  0  0  0  0  0  0  0  0  0
   -9.3612  -22.4729  -19.3646 H   0  0  0  0  0  0  0  0  0  0  0  0
  -10.8617  -24.5690  -20.9764 H   0  0  0  0  0  0  0  0  0  0  0  0
  -10.6830  -24.4881  -19.1909 H   0  0  0  0  0  0  0  0  0  0  0  0
   -8.7106  -24.9568  -22.3578 H   0  0  0  0  0  0  0  0  0  0  0  0
   -8.8965  -25.5813  -18.1390 H   0  0  0  0  0  0  0  0  0  0  0  0
   -6.7438  -26.4493  -22.4932 H   0  0  0  0  0  0  0  0  0  0  0  0
   -6.9120  -27.0352  -18.2670 H   0  0  0  0  0  0  0  0  0  0  0  0
   -5.8440  -28.5103  -20.1646 H   0  0  0  0  0  0  0  0  0  0  0  0
  -10.7701  -22.5801  -22.6428 H   0  0  0  0  0  0  0  0  0  0  0  0
   -8.1717  -23.0319  -23.8424 H   0  0  0  0  0  0  0  0  0  0  0  0
   -9.4093  -22.8403  -25.9716 H   0  0  0  0  0  0  0  0  0  0  0  0
  -10.8516  -22.2534  -25.0760 H   0  0  0  0  0  0  0  0  0  0  0  0
  -12.0252  -25.4915  -24.5000 H   0  0  0  0  0  0  0  0  0  0  0  0
  -12.3530  -23.8072  -24.7360 H   0  0  0  0  0  0  0  0  0  0  0  0
  -10.0444  -20.1464  -23.1302 H   0  0  0  0  0  0  0  0  0  0  0  0
   -8.2287  -18.6449  -24.9508 H   0  0  0  0  0  0  0  0  0  0  0  0
  -10.0888  -17.2206  -25.5834 H   0  0  0  0  0  0  0  0  0  0  0  0
  -11.1728  -18.0616  -24.4239 H   0  0  0  0  0  0  0  0  0  0  0  0
  -11.7861  -19.1791  -26.3347 H   0  0  0  0  0  0  0  0  0  0  0  0
  -10.3772  -20.1974  -25.8822 H   0  0  0  0  0  0  0  0  0  0  0  0
  -10.3992  -16.7774  -28.9556 H   0  0  0  0  0  0  0  0  0  0  0  0
  -10.5946  -16.5365  -27.1864 H   0  0  0  0  0  0  0  0  0  0  0  0
  -11.8374  -17.4453  -28.1118 H   0  0  0  0  0  0  0  0  0  0  0  0
   -9.1092  -18.8755  -21.6589 H   0  0  0  0  0  0  0  0  0  0  0  0
   -8.9835  -15.9781  -21.2719 H   0  0  0  0  0  0  0  0  0  0  0  0
  -10.2430  -17.3665  -19.6519 H   0  0  0  0  0  0  0  0  0  0  0  0
   -8.9735  -16.3598  -18.8763 H   0  0  0  0  0  0  0  0  0  0  0  0
   -8.7792  -19.1443  -19.4574 H   0  0  0  0  0  0  0  0  0  0  0  0
   -6.6767  -18.5128  -21.6678 H   0  0  0  0  0  0  0  0  0  0  0  0
   -4.6560  -16.3113  -21.5882 H   0  0  0  0  0  0  0  0  0  0  0  0
   -2.8617  -17.8880  -21.1518 H   0  0  0  0  0  0  0  0  0  0  0  0
   -4.0448  -19.7959  -22.3357 H   0  0  0  0  0  0  0  0  0  0  0  0
   -4.9479  -20.0714  -20.8076 H   0  0  0  0  0  0  0  0  0  0  0  0
   -3.9901  -16.8847  -19.1907 H   0  0  0  0  0  0  0  0  0  0  0  0
   -3.3296  -18.5157  -18.8300 H   0  0  0  0  0  0  0  0  0  0  0  0
   -5.0915  -18.3013  -19.1068 H   0  0  0  0  0  0  0  0  0  0  0  0
   -2.9954  -21.6152  -20.9878 H   0  0  0  0  0  0  0  0  0  0  0  0
   -2.7900  -20.4850  -19.6068 H   0  0  0  0  0  0  0  0  0  0  0  0
   -1.8869  -20.2095  -21.1349 H   0  0  0  0  0  0  0  0  0  0  0  0
   -3.0634  -16.4578  -23.3432 H   0  0  0  0  0  0  0  0  0  0  0  0
   -4.1760  -17.7515  -25.7295 H   0  0  0  0  0  0  0  0  0  0  0  0
   -1.6048  -16.1667  -25.3019 H   0  0  0  0  0  0  0  0  0  0  0  0
   -3.1456  -15.5649  -26.0023 H   0  0  0  0  0  0  0  0  0  0  0  0
   -2.8164  -17.5282  -27.7226 H   0  0  0  0  0  0  0  0  0  0  0  0
   -1.1043  -17.4673  -27.1825 H   0  0  0  0  0  0  0  0  0  0  0  0
   -2.5949  -14.9707  -28.0131 H   0  0  0  0  0  0  0  0  0  0  0  0
   -1.8092  -16.0441  -29.2203 H   0  0  0  0  0  0  0  0  0  0  0  0
   -0.4541  -14.4547  -27.0821 H   0  0  0  0  0  0  0  0  0  0  0  0
    1.3846  -16.3246  -30.1877 H   0  0  0  0  0  0  0  0  0  0  0  0
   -0.3476  -16.6176  -29.8772 H   0  0  0  0  0  0  0  0  0  0  0  0
    1.7517  -14.0764  -27.4705 H   0  0  0  0  0  0  0  0  0  0  0  0
    2.5716  -14.8976  -28.8255 H   0  0  0  0  0  0  0  0  0  0  0  0
   -3.7696  -19.7579  -26.2915 H   0  0  0  0  0  0  0  0  0  0  0  0
   -1.4690  -21.1333  -24.9885 H   0  0  0  0  0  0  0  0  0  0  0  0
   -2.6951  -23.2376  -25.6411 H   0  0  0  0  0  0  0  0  0  0  0  0
   -4.0333  -22.2092  -26.2562 H   0  0  0  0  0  0  0  0  0  0  0  0
   -4.3943  -21.2842  -24.0172 H   0  0  0  0  0  0  0  0  0  0  0  0
   -2.9966  -22.2160  -23.3811 H   0  0  0  0  0  0  0  0  0  0  0  0
   -4.1534  -24.3392  -23.8267 H   0  0  0  0  0  0  0  0  0  0  0  0
   -5.5160  -23.4698  -24.6103 H   0  0  0  0  0  0  0  0  0  0  0  0
   -6.2623  -22.7054  -22.4987 H   0  0  0  0  0  0  0  0  0  0  0  0
   -3.3978  -24.7356  -20.4521 H   0  0  0  0  0  0  0  0  0  0  0  0
   -3.2631  -24.5896  -22.2250 H   0  0  0  0  0  0  0  0  0  0  0  0
   -6.4213  -22.8920  -20.2625 H   0  0  0  0  0  0  0  0  0  0  0  0
   -5.1896  -23.8052  -19.3505 H   0  0  0  0  0  0  0  0  0  0  0  0
    0.2285  -20.7742  -26.2398 H   0  0  0  0  0  0  0  0  0  0  0  0
    0.1607  -21.7445  -29.0553 H   0  0  0  0  0  0  0  0  0  0  0  0
    1.7368  -19.8959  -29.6623 H   0  0  0  0  0  0  0  0  0  0  0  0
    1.4837  -19.1848  -28.0323 H   0  0  0  0  0  0  0  0  0  0  0  0
    0.1202  -18.2506  -29.6413 H   0  0  0  0  0  0  0  0  0  0  0  0
  1  2  2  0  0  0  0
  1  3  1  0  0  0  0
  1  4  1  0  0  0  0
  3 88  1  0  0  0  0
  3 89  1  0  0  0  0
  3 90  1  0  0  0  0
  4  5  1  0  0  0  0
  4 91  1  0  0  0  0
  5  6  1  0  0  0  0
  5  8  1  0  0  0  0
  5 92  1  1  0  0  0
  6  7  2  0  0  0  0
  6 12  1  0  0  0  0
  8  9  1  0  0  0  0
  8 93  1  0  0  0  0
  8 94  1  0  0  0  0
  9 10  2  0  0  0  0
  9 11  1  0  0  0  0
 11 95  1  0  0  0  0
 11 96  1  0  0  0  0
 12 13  1  0  0  0  0
 12 97  1  0  0  0  0
 13 14  1  0  0  0  0
 13 16  1  0  0  0  0
 13 98  1  6  0  0  0
 14 15  2  0  0  0  0
 14 17  1  0  0  0  0
 16 99  1  0  0  0  0
 16100  1  0  0  0  0
 16101  1  0  0  0  0
 17 18  1  0  0  0  0
 17102  1  0  0  0  0
 18 19  1  0  0  0  0
 18 21  1  0  0  0  0
 18103  1  1  0  0  0
 19 20  2  0  0  0  0
 19 29  1  0  0  0  0
 21 22  1  0  0  0  0
 21104  1  0  0  0  0
 21105  1  0  0  0  0
 22 23  2  0  0  0  0
 22 24  1  0  0  0  0
 23 25  1  0  0  0  0
 23106  1  0  0  0  0
 24 26  2  0  0  0  0
 24107  1  0  0  0  0
 25 27  2  0  0  0  0
 25108  1  0  0  0  0
 26 27  1  0  0  0  0
 26109  1  0  0  0  0
 27 28  1  0  0  0  0
 28110  1  0  0  0  0
 29 30  1  0  0  0  0
 29111  1  0  0  0  0
 30 31  1  0  0  0  0
 30 33  1  0  0  0  0
 30112  1  1  0  0  0
 31 32  2  0  0  0  0
 31 37  1  0  0  0  0
 33 34  1  0  0  0  0
 33113  1  0  0  0  0
 33114  1  0  0  0  0
 34 35  2  0  0  0  0
 34 36  1  0  0  0  0
 36115  1  0  0  0  0
 36116  1  0  0  0  0
 37 38  1  0  0  0  0
 37117  1  0  0  0  0
 38 39  1  0  0  0  0
 38 41  1  0  0  0  0
 38118  1  6  0  0  0
 39 40  2  0  0  0  0
 39 45  1  0  0  0  0
 41 42  1  0  0  0  0
 41119  1  0  0  0  0
 41120  1  0  0  0  0
 42 43  1  0  0  0  0
 42121  1  0  0  0  0
 42122  1  0  0  0  0
 43 44  1  0  0  0  0
 44123  1  0  0  0  0
 44124  1  0  0  0  0
 44125  1  0  0  0  0
 45 46  1  0  0  0  0
 45126  1  0  0  0  0
 46 47  1  0  0  0  0
 46 49  1  0  0  0  0
 46127  1  6  0  0  0
 47 48  2  0  0  0  0
 47 51  1  0  0  0  0
 49 50  1  0  0  0  0
 49128  1  0  0  0  0
 49129  1  0  0  0  0
 50130  1  0  0  0  0
 51 52  1  0  0  0  0
 51131  1  0  0  0  0
 52 53  1  0  0  0  0
 52 55  1  0  0  0  0
 52132  1  1  0  0  0
 53 54  2  0  0  0  0
 53 59  1  0  0  0  0
 55 56  1  0  0  0  0
 55 57  1  0  0  0  0
 55133  1  6  0  0  0
 56 58  1  0  0  0  0
 56134  1  0  0  0  0
 56135  1  0  0  0  0
 57136  1  0  0  0  0
 57137  1  0  0  0  0
 57138  1  0  0  0  0
 58139  1  0  0  0  0
 58140  1  0  0  0  0
 58141  1  0  0  0  0
 59 60  1  0  0  0  0
 59142  1  0  0  0  0
 60 61  1  0  0  0  0
 60 63  1  0  0  0  0
 60143  1  6  0  0  0
 61 62  2  0  0  0  0
 61 70  1  0  0  0  0
 63 64  1  0  0  0  0
 63144  1  0  0  0  0
 63145  1  0  0  0  0
 64 65  1  0  0  0  0
 64146  1  0  0  0  0
 64147  1  0  0  0  0
 65 66  1  0  0  0  0
 65148  1  0  0  0  0
 65149  1  0  0  0  0
 66 67  1  0  0  0  0
 66150  1  0  0  0  0
 67 68  1  0  0  0  0
 67 69  1  0  0  0  0
 68151  1  0  0  0  0
 68152  1  0  0  0  0
 69153  1  0  0  0  0
 69154  1  0  0  0  0
 70 71  1  0  0  0  0
 70155  1  0  0  0  0
 71 72  1  0  0  0  0
 71 74  1  0  0  0  0
 71156  1  1  0  0  0
 72 73  2  0  0  0  0
 72 81  1  0  0  0  0
 74 75  1  0  0  0  0
 74157  1  0  0  0  0
 74158  1  0  0  0  0
 75 76  1  0  0  0  0
 75159  1  0  0  0  0
 75160  1  0  0  0  0
 76 77  1  0  0  0  0
 76161  1  0  0  0  0
 76162  1  0  0  0  0
 77 78  1  0  0  0  0
 77163  1  0  0  0  0
 78 79  1  0  0  0  0
 78 80  1  0  0  0  0
 79164  1  0  0  0  0
 79165  1  0  0  0  0
 80166  1  0  0  0  0
 80167  1  0  0  0  0
 81 82  1  0  0  0  0
 81168  1  0  0  0  0
 82 83  1  0  0  0  0
 82 85  1  0  0  0  0
 82169  1  6  0  0  0
 83 84  1  0  0  0  0
 83 87  2  0  0  0  0
 85 86  1  0  0  0  0
 85170  1  0  0  0  0
 85171  1  0  0  0  0
 86172  1  0  0  0  0
M  CHG  1  84  -1
M  END
