4qy8_ligand
 OpenBabel08222323353D

225225  0  0  1  0  0  0  0  0999 V2000
   32.3150    9.1270   41.1860 C   0  0  0  0  0  0  0  0  0  0  0  0
   33.2970    9.7530   41.5930 O   0  0  0  0  0  0  0  0  0  0  0  0
   31.8830    9.2430   39.7610 C   0  0  0  0  0  0  0  0  0  0  0  0
   31.5910    8.3610   42.0060 N   0  0  0  0  0  0  0  0  0  0  0  0
   30.3750    7.5950   41.7270 C   0  0  2  0  0  0  0  0  0  0  0  0
   29.1100    8.4440   41.9440 C   0  0  0  0  0  0  0  0  0  0  0  0
   28.6890    8.6840   43.0710 O   0  0  0  0  0  0  0  0  0  0  0  0
   30.3550    6.3620   42.6320 C   0  0  0  0  0  0  0  0  0  0  0  0
   29.1430    5.4860   42.4100 C   0  0  0  0  0  0  0  0  0  0  0  0
   28.2870    5.7870   41.5670 O   0  0  0  0  0  0  0  0  0  0  0  0
   29.0720    4.3740   43.1530 N   0  0  0  0  0  0  0  0  0  0  0  0
   28.4990    8.8720   40.8490 N   0  0  0  0  0  0  0  0  0  0  0  0
   27.3590    9.7880   40.8770 C   0  0  2  0  0  0  0  0  0  0  0  0
   25.9920    9.0990   41.0040 C   0  0  0  0  0  0  0  0  0  0  0  0
   24.9660    9.7690   41.0890 O   0  0  0  0  0  0  0  0  0  0  0  0
   27.3790   10.6040   39.6080 C   0  0  0  0  0  0  0  0  0  0  0  0
   25.9690    7.7750   40.9910 N   0  0  0  0  0  0  0  0  0  0  0  0
   24.7050    7.0480   41.0180 C   0  0  2  0  0  0  0  0  0  0  0  0
   23.8840    7.3830   42.2470 C   0  0  0  0  0  0  0  0  0  0  0  0
   22.6910    7.6300   42.1530 O   0  0  0  0  0  0  0  0  0  0  0  0
   24.9670    5.5540   40.9960 C   0  0  0  0  0  0  0  0  0  0  0  0
   23.7250    4.6910   41.0480 C   0  0  0  0  0  0  0  0  0  0  0  0
   23.2120    4.1290   39.8950 C   0  0  0  0  0  0  0  0  0  0  0  0
   23.0680    4.4490   42.2410 C   0  0  0  0  0  0  0  0  0  0  0  0
   22.0980    3.3370   39.9260 C   0  0  0  0  0  0  0  0  0  0  0  0
   21.9400    3.6370   42.2870 C   0  0  0  0  0  0  0  0  0  0  0  0
   21.4540    3.1090   41.1200 C   0  0  0  0  0  0  0  0  0  0  0  0
   20.3450    2.2940   41.1510 O   0  0  0  0  0  0  0  0  0  0  0  0
   24.5240    7.3850   43.4060 N   0  0  0  0  0  0  0  0  0  0  0  0
   23.8010    7.4690   44.6630 C   0  0  2  0  0  0  0  0  0  0  0  0
   23.2860    8.8630   44.9760 C   0  0  0  0  0  0  0  0  0  0  0  0
   22.1980    9.0010   45.5350 O   0  0  0  0  0  0  0  0  0  0  0  0
   24.6870    6.9470   45.7860 C   0  0  0  0  0  0  0  0  0  0  0  0
   25.0780    5.5010   45.5690 C   0  0  0  0  0  0  0  0  0  0  0  0
   24.2200    4.6380   45.3930 O   0  0  0  0  0  0  0  0  0  0  0  0
   26.3770    5.2290   45.5420 N   0  0  0  0  0  0  0  0  0  0  0  0
   24.0420    9.8890   44.5970 N   0  0  0  0  0  0  0  0  0  0  0  0
   23.7530   11.2320   45.0830 C   0  0  2  0  0  0  0  0  0  0  0  0
   23.5450   12.2840   44.0070 C   0  0  0  0  0  0  0  0  0  0  0  0
   23.2870   13.4360   44.3460 O   0  0  0  0  0  0  0  0  0  0  0  0
   24.8430   11.6840   46.0480 C   0  0  0  0  0  0  0  0  0  0  0  0
   24.7840   10.9380   47.3800 C   0  0  0  0  0  0  0  0  0  0  0  0
   25.6790   11.8150   48.6690 S   0  0  0  0  0  0  0  0  0  0  0  0
   27.3550   11.6490   48.0560 C   0  0  0  0  0  0  0  0  0  0  0  0
   23.6190   11.9290   42.7250 N   0  0  0  0  0  0  0  0  0  0  0  0
   23.2680   12.9260   41.7120 C   0  0  2  0  0  0  0  0  0  0  0  0
   21.7540   13.1300   41.6220 C   0  0  0  0  0  0  0  0  0  0  0  0
   21.2950   14.0990   41.0110 O   0  0  0  0  0  0  0  0  0  0  0  0
   23.8940   12.6420   40.3430 C   0  0  0  0  0  0  0  0  0  0  0  0
   23.3910   11.4660   39.7590 O   0  0  0  0  0  0  0  0  0  0  0  0
   20.9920   12.2220   42.2270 N   0  0  0  0  0  0  0  0  0  0  0  0
   19.5790   12.4710   42.5400 C   0  0  2  0  0  0  0  0  0  0  0  0
   19.3550   12.1290   44.0110 C   0  0  0  0  0  0  0  0  0  0  0  0
   20.1240   11.3710   44.5920 O   0  0  0  0  0  0  0  0  0  0  0  0
   18.6000   11.6600   41.6540 C   0  0  2  0  0  0  0  0  0  0  0  0
   18.6960   10.1580   41.9400 C   0  0  0  0  0  0  0  0  0  0  0  0
   18.8590   11.9320   40.1890 C   0  0  0  0  0  0  0  0  0  0  0  0
   17.5680    9.3360   41.3190 C   0  0  0  0  0  0  0  0  0  0  0  0
   18.3100   12.6870   44.6190 N   0  0  0  0  0  0  0  0  0  0  0  0
   17.9230   12.3050   45.9740 C   0  0  2  0  0  0  0  0  0  0  0  0
   17.0920   11.0240   45.9160 C   0  0  0  0  0  0  0  0  0  0  0  0
   16.0620   10.9860   45.2470 O   0  0  0  0  0  0  0  0  0  0  0  0
   17.1240   13.4260   46.6430 C   0  0  0  0  0  0  0  0  0  0  0  0
   16.6090   13.0870   48.0350 C   0  0  0  0  0  0  0  0  0  0  0  0
   15.8600   14.2660   48.6490 C   0  0  0  0  0  0  0  0  0  0  0  0
   14.8230   13.8390   49.5830 N   0  0  0  0  0  0  0  0  0  0  0  0
   13.9810   14.6650   50.1940 C   0  0  0  0  0  3  0  0  0  0  0  0
   14.0470   15.9720   49.9760 N   0  0  0  0  0  0  0  0  0  0  0  0
   13.0680   14.1840   51.0270 N   0  0  0  0  0  0  0  0  0  0  0  0
   17.5580    9.9770   46.5960 N   0  0  0  0  0  0  0  0  0  0  0  0
   16.9020    8.6710   46.5700 C   0  0  2  0  0  0  0  0  0  0  0  0
   16.1880    8.3020   47.8680 C   0  0  0  0  0  0  0  0  0  0  0  0
   15.7590    7.1620   48.0320 O   0  0  0  0  0  0  0  0  0  0  0  0
   17.9320    7.5780   46.2650 C   0  0  0  0  0  0  0  0  0  0  0  0
   18.5470    7.6920   44.8980 C   0  0  0  0  0  0  0  0  0  0  0  0
   19.4950    6.5350   44.5970 C   0  0  0  0  0  0  0  0  0  0  0  0
   20.1360    6.7060   43.2940 N   0  0  0  0  0  0  0  0  0  0  0  0
   19.6680    6.2350   42.1400 C   0  0  0  0  0  3  0  0  0  0  0  0
   18.5460    5.5300   42.0920 N   0  0  0  0  0  0  0  0  0  0  0  0
   20.3320    6.4700   41.0210 N   0  0  0  0  0  0  0  0  0  0  0  0
   16.0600    9.2420   48.7940 N   0  0  0  0  0  0  0  0  0  0  0  0
   15.4300    8.9190   50.0730 C   0  0  2  0  0  0  0  0  0  0  0  0
   13.9710    8.4830   49.9130 C   0  0  0  0  0  0  0  0  0  0  0  0
   13.4820    7.6370   50.6640 O   0  0  0  0  0  0  0  0  0  0  0  0
   15.5490   10.0810   51.0590 C   0  0  0  0  0  0  0  0  0  0  0  0
   14.9800   11.2570   50.5230 O   0  0  0  0  0  0  0  0  0  0  0  0
   13.2810    9.0500   48.9290 N   0  0  0  0  0  0  0  0  0  0  0  0
   11.8890    8.6870   48.6710 C   0  0  2  0  0  0  0  0  0  0  0  0
   11.4880    9.0330   47.2380 C   0  0  0  0  0  0  0  0  0  0  0  0
   10.5510    9.7960   47.0060 O   0  0  0  0  0  0  0  0  0  0  0  0
   10.9600    9.3780   49.6760 C   0  0  0  0  0  0  0  0  0  0  0  0
   11.0060   10.9010   49.6330 C   0  0  0  0  0  0  0  0  0  0  0  0
   10.5440   11.6590   51.2020 S   0  0  0  0  0  0  0  0  0  0  0  0
   11.9920   11.2780   52.1840 C   0  0  0  0  0  0  0  0  0  0  0  0
   12.1980    8.4510   46.2780 N   0  0  0  0  0  0  0  0  0  0  0  0
   12.0280    8.8180   44.8750 C   0  0  2  0  0  0  0  0  0  0  0  0
   10.8300    8.1480   44.2020 C   0  0  0  0  0  0  0  0  0  0  0  0
   10.6130    8.3290   43.0030 O   0  0  0  0  0  0  0  0  0  0  0  0
   13.3080    8.5350   44.0910 C   0  0  0  0  0  0  0  0  0  0  0  0
   10.0620    7.3750   44.9680 N   0  0  0  0  0  0  0  0  0  0  0  0
    8.8390    6.7660   44.4410 C   0  0  2  0  0  0  0  0  0  0  0  0
    7.6640    6.9100   45.3960 C   0  0  0  0  0  0  0  0  0  0  0  0
    6.7690    6.0690   45.4200 O   0  0  0  0  0  0  0  0  0  0  0  0
    9.0700    5.2930   44.0840 C   0  0  0  0  0  0  0  0  0  0  0  0
   10.2250    5.1160   43.1140 C   0  0  0  0  0  0  0  0  0  0  0  0
   10.2680    3.7570   42.4280 C   0  0  0  0  0  0  0  0  0  0  0  0
    9.3110    2.9700   42.5410 O   0  5  0  0  0  0  0  0  0  0  0  0
   11.2820    3.4910   41.7590 O   0  0  0  0  0  0  0  0  0  0  0  0
    7.6690    7.9860   46.1770 N   0  0  0  0  0  0  0  0  0  0  0  0
    6.5840    8.2560   47.1110 C   0  0  2  0  0  0  0  0  0  0  0  0
    5.4040    8.9050   46.3960 C   0  0  0  0  0  0  0  0  0  0  0  0
    4.9580    8.4230   45.3540 O   0  5  0  0  0  0  0  0  0  0  0  0
    7.0680    9.1540   48.2500 C   0  0  0  0  0  0  0  0  0  0  0  0
    7.5250   10.4000   47.7550 O   0  0  0  0  0  0  0  0  0  0  0  0
    4.8770    9.9220   46.8480 O   0  0  0  0  0  0  0  0  0  0  0  0
   30.9959    8.6143   39.5945 H   0  0  0  0  0  0  0  0  0  0  0  0
   32.6981    8.9087   39.1023 H   0  0  0  0  0  0  0  0  0  0  0  0
   31.6367   10.2913   39.5367 H   0  0  0  0  0  0  0  0  0  0  0  0
   31.9279    8.3022   42.9457 H   0  0  0  0  0  0  0  0  0  0  0  0
   30.3968    7.2672   40.6772 H   0  0  0  0  0  0  0  0  0  0  0  0
   30.3587    6.6962   43.6800 H   0  0  0  0  0  0  0  0  0  0  0  0
   31.2586    5.7669   42.4337 H   0  0  0  0  0  0  0  0  0  0  0  0
   28.2941    3.7538   43.0518 H   0  0  0  0  0  0  0  0  0  0  0  0
   29.7969    4.1638   43.8090 H   0  0  0  0  0  0  0  0  0  0  0  0
   28.8329    8.5538   39.9617 H   0  0  0  0  0  0  0  0  0  0  0  0
   27.4816   10.4588   41.7401 H   0  0  0  0  0  0  0  0  0  0  0  0
   26.5285   11.3016   39.6072 H   0  0  0  0  0  0  0  0  0  0  0  0
   27.3038    9.9332   38.7395 H   0  0  0  0  0  0  0  0  0  0  0  0
   28.3192   11.1722   39.5522 H   0  0  0  0  0  0  0  0  0  0  0  0
   26.8298    7.2669   40.9623 H   0  0  0  0  0  0  0  0  0  0  0  0
   24.1268    7.3237   40.1238 H   0  0  0  0  0  0  0  0  0  0  0  0
   25.5941    5.3037   41.8644 H   0  0  0  0  0  0  0  0  0  0  0  0
   25.5108    5.3155   40.0700 H   0  0  0  0  0  0  0  0  0  0  0  0
   23.7023    4.3197   38.9472 H   0  0  0  0  0  0  0  0  0  0  0  0
   23.4384    4.8996   43.1547 H   0  0  0  0  0  0  0  0  0  0  0  0
   21.7233    2.8900   39.0123 H   0  0  0  0  0  0  0  0  0  0  0  0
   21.4527    3.4251   43.2318 H   0  0  0  0  0  0  0  0  0  0  0  0
   20.1360    2.0118   40.2683 H   0  0  0  0  0  0  0  0  0  0  0  0
   25.5223    7.3277   43.4162 H   0  0  0  0  0  0  0  0  0  0  0  0
   22.9245    6.8088   44.5860 H   0  0  0  0  0  0  0  0  0  0  0  0
   24.1410    7.0290   46.7374 H   0  0  0  0  0  0  0  0  0  0  0  0
   25.5997    7.5592   45.8330 H   0  0  0  0  0  0  0  0  0  0  0  0
   26.6882    4.2891   45.4016 H   0  0  0  0  0  0  0  0  0  0  0  0
   27.0444    5.9640   45.6621 H   0  0  0  0  0  0  0  0  0  0  0  0
   24.8115    9.7385   43.9763 H   0  0  0  0  0  0  0  0  0  0  0  0
   22.8111   11.1672   45.6475 H   0  0  0  0  0  0  0  0  0  0  0  0
   24.7216   12.7603   46.2398 H   0  0  0  0  0  0  0  0  0  0  0  0
   25.8237   11.5025   45.5841 H   0  0  0  0  0  0  0  0  0  0  0  0
   25.2300    9.9408   47.2509 H   0  0  0  0  0  0  0  0  0  0  0  0
   23.7321   10.8327   47.6841 H   0  0  0  0  0  0  0  0  0  0  0  0
   28.0498   12.1460   48.7490 H   0  0  0  0  0  0  0  0  0  0  0  0
   27.4303   12.1166   47.0632 H   0  0  0  0  0  0  0  0  0  0  0  0
   27.6136   10.5826   47.9797 H   0  0  0  0  0  0  0  0  0  0  0  0
   23.9061   11.0079   42.4622 H   0  0  0  0  0  0  0  0  0  0  0  0
   23.6943   13.8804   42.0546 H   0  0  0  0  0  0  0  0  0  0  0  0
   24.9821   12.5380   40.4664 H   0  0  0  0  0  0  0  0  0  0  0  0
   23.6801   13.4885   39.6739 H   0  0  0  0  0  0  0  0  0  0  0  0
   23.5768   10.7273   40.3267 H   0  0  0  0  0  0  0  0  0  0  0  0
   21.3948   11.3414   42.4766 H   0  0  0  0  0  0  0  0  0  0  0  0
   19.3724   13.5401   42.3839 H   0  0  0  0  0  0  0  0  0  0  0  0
   17.5767   11.9876   41.8897 H   0  0  0  0  0  0  0  0  0  0  0  0
   18.6722   10.0108   43.0298 H   0  0  0  0  0  0  0  0  0  0  0  0
   19.6527    9.7900   41.5410 H   0  0  0  0  0  0  0  0  0  0  0  0
   18.7869   13.0130   39.9985 H   0  0  0  0  0  0  0  0  0  0  0  0
   18.1121   11.4018   39.5799 H   0  0  0  0  0  0  0  0  0  0  0  0
   19.8664   11.5792   39.9230 H   0  0  0  0  0  0  0  0  0  0  0  0
   17.7080    8.2739   41.5687 H   0  0  0  0  0  0  0  0  0  0  0  0
   17.5822    9.4606   40.2262 H   0  0  0  0  0  0  0  0  0  0  0  0
   16.6016    9.6815   41.7150 H   0  0  0  0  0  0  0  0  0  0  0  0
   17.7784   13.3833   44.1368 H   0  0  0  0  0  0  0  0  0  0  0  0
   18.8312   12.1169   46.5655 H   0  0  0  0  0  0  0  0  0  0  0  0
   16.2598   13.6609   46.0043 H   0  0  0  0  0  0  0  0  0  0  0  0
   17.7727   14.3108   46.7223 H   0  0  0  0  0  0  0  0  0  0  0  0
   17.4618   12.8287   48.6800 H   0  0  0  0  0  0  0  0  0  0  0  0
   15.9277   12.2262   47.9657 H   0  0  0  0  0  0  0  0  0  0  0  0
   15.3907   14.8463   47.8409 H   0  0  0  0  0  0  0  0  0  0  0  0
   16.5798   14.9011   49.1862 H   0  0  0  0  0  0  0  0  0  0  0  0
   14.7385   12.8318   49.7813 H   0  0  0  0  0  0  0  0  0  0  0  0
   13.3913   16.6074   50.4528 H   0  0  0  0  0  0  0  0  0  0  0  0
   14.7539   16.3513   49.3300 H   0  0  0  0  0  0  0  0  0  0  0  0
   13.0120   13.1702   51.2002 H   0  0  0  0  0  0  0  0  0  0  0  0
   12.4149   14.8242   51.5008 H   0  0  0  0  0  0  0  0  0  0  0  0
   18.3869   10.0889   47.1442 H   0  0  0  0  0  0  0  0  0  0  0  0
   16.1536    8.6895   45.7641 H   0  0  0  0  0  0  0  0  0  0  0  0
   17.4338    6.6003   46.3412 H   0  0  0  0  0  0  0  0  0  0  0  0
   18.7356    7.6394   47.0136 H   0  0  0  0  0  0  0  0  0  0  0  0
   19.1093    8.6356   44.8395 H   0  0  0  0  0  0  0  0  0  0  0  0
   17.7435    7.6968   44.1468 H   0  0  0  0  0  0  0  0  0  0  0  0
   18.9250    5.5942   44.5964 H   0  0  0  0  0  0  0  0  0  0  0  0
   20.2703    6.4936   45.3762 H   0  0  0  0  0  0  0  0  0  0  0  0
   21.0205    7.2331   43.2667 H   0  0  0  0  0  0  0  0  0  0  0  0
   18.1997    5.1739   41.1897 H   0  0  0  0  0  0  0  0  0  0  0  0
   18.0207    5.3384   42.9570 H   0  0  0  0  0  0  0  0  0  0  0  0
   21.2048    7.0163   41.0451 H   0  0  0  0  0  0  0  0  0  0  0  0
   19.9764    6.1067   40.1252 H   0  0  0  0  0  0  0  0  0  0  0  0
   16.3931   10.1684   48.6183 H   0  0  0  0  0  0  0  0  0  0  0  0
   15.9796    8.0669   50.4995 H   0  0  0  0  0  0  0  0  0  0  0  0
   16.6121   10.2619   51.2759 H   0  0  0  0  0  0  0  0  0  0  0  0
   15.0243    9.8189   51.9896 H   0  0  0  0  0  0  0  0  0  0  0  0
   15.0655   11.9639   51.1519 H   0  0  0  0  0  0  0  0  0  0  0  0
   13.7228    9.7385   48.3538 H   0  0  0  0  0  0  0  0  0  0  0  0
   11.7885    7.5994   48.8011 H   0  0  0  0  0  0  0  0  0  0  0  0
   11.2456    9.0538   50.6876 H   0  0  0  0  0  0  0  0  0  0  0  0
    9.9284    9.0591   49.4663 H   0  0  0  0  0  0  0  0  0  0  0  0
   10.3115   11.2517   48.8554 H   0  0  0  0  0  0  0  0  0  0  0  0
   12.0293   11.2146   49.3792 H   0  0  0  0  0  0  0  0  0  0  0  0
   11.8643   11.6839   53.1984 H   0  0  0  0  0  0  0  0  0  0  0  0
   12.8803   11.7291   51.7178 H   0  0  0  0  0  0  0  0  0  0  0  0
   12.1209   10.1870   52.2392 H   0  0  0  0  0  0  0  0  0  0  0  0
   12.8638    7.7458   46.5216 H   0  0  0  0  0  0  0  0  0  0  0  0
   11.8498    9.9030   44.8447 H   0  0  0  0  0  0  0  0  0  0  0  0
   13.1627    8.8168   43.0377 H   0  0  0  0  0  0  0  0  0  0  0  0
   13.5473    7.4632   44.1541 H   0  0  0  0  0  0  0  0  0  0  0  0
   14.1358    9.1212   44.5165 H   0  0  0  0  0  0  0  0  0  0  0  0
   10.3248    7.2078   45.9183 H   0  0  0  0  0  0  0  0  0  0  0  0
    8.5787    7.2986   43.5144 H   0  0  0  0  0  0  0  0  0  0  0  0
    8.1552    4.8917   43.6235 H   0  0  0  0  0  0  0  0  0  0  0  0
    9.2919    4.7350   45.0056 H   0  0  0  0  0  0  0  0  0  0  0  0
   11.1647    5.2507   43.6697 H   0  0  0  0  0  0  0  0  0  0  0  0
   10.1439    5.8909   42.3375 H   0  0  0  0  0  0  0  0  0  0  0  0
    8.4360    8.6253   46.1220 H   0  0  0  0  0  0  0  0  0  0  0  0
    6.2487    7.2997   47.5389 H   0  0  0  0  0  0  0  0  0  0  0  0
    7.8925    8.6525   48.7780 H   0  0  0  0  0  0  0  0  0  0  0  0
    6.2367    9.3278   48.9491 H   0  0  0  0  0  0  0  0  0  0  0  0
    6.8151   10.8388   47.3011 H   0  0  0  0  0  0  0  0  0  0  0  0
  1  2  2  0  0  0  0
  1  3  1  0  0  0  0
  1  4  1  0  0  0  0
  3116  1  0  0  0  0
  3117  1  0  0  0  0
  3118  1  0  0  0  0
  4  5  1  0  0  0  0
  4119  1  0  0  0  0
  5  6  1  0  0  0  0
  5  8  1  0  0  0  0
  5120  1  6  0  0  0
  6  7  2  0  0  0  0
  6 12  1  0  0  0  0
  8  9  1  0  0  0  0
  8121  1  0  0  0  0
  8122  1  0  0  0  0
  9 10  2  0  0  0  0
  9 11  1  0  0  0  0
 11123  1  0  0  0  0
 11124  1  0  0  0  0
 12 13  1  0  0  0  0
 12125  1  0  0  0  0
 13 14  1  0  0  0  0
 13 16  1  0  0  0  0
 13126  1  1  0  0  0
 14 15  2  0  0  0  0
 14 17  1  0  0  0  0
 16127  1  0  0  0  0
 16128  1  0  0  0  0
 16129  1  0  0  0  0
 17 18  1  0  0  0  0
 17130  1  0  0  0  0
 18 19  1  0  0  0  0
 18 21  1  0  0  0  0
 18131  1  6  0  0  0
 19 20  2  0  0  0  0
 19 29  1  0  0  0  0
 21 22  1  0  0  0  0
 21132  1  0  0  0  0
 21133  1  0  0  0  0
 22 23  2  0  0  0  0
 22 24  1  0  0  0  0
 23 25  1  0  0  0  0
 23134  1  0  0  0  0
 24 26  2  0  0  0  0
 24135  1  0  0  0  0
 25 27  2  0  0  0  0
 25136  1  0  0  0  0
 26 27  1  0  0  0  0
 26137  1  0  0  0  0
 27 28  1  0  0  0  0
 28138  1  0  0  0  0
 29 30  1  0  0  0  0
 29139  1  0  0  0  0
 30 31  1  0  0  0  0
 30 33  1  0  0  0  0
 30140  1  6  0  0  0
 31 32  2  0  0  0  0
 31 37  1  0  0  0  0
 33 34  1  0  0  0  0
 33141  1  0  0  0  0
 33142  1  0  0  0  0
 34 35  2  0  0  0  0
 34 36  1  0  0  0  0
 36143  1  0  0  0  0
 36144  1  0  0  0  0
 37 38  1  0  0  0  0
 37145  1  0  0  0  0
 38 39  1  0  0  0  0
 38 41  1  0  0  0  0
 38146  1  1  0  0  0
 39 40  2  0  0  0  0
 39 45  1  0  0  0  0
 41 42  1  0  0  0  0
 41147  1  0  0  0  0
 41148  1  0  0  0  0
 42 43  1  0  0  0  0
 42149  1  0  0  0  0
 42150  1  0  0  0  0
 43 44  1  0  0  0  0
 44151  1  0  0  0  0
 44152  1  0  0  0  0
 44153  1  0  0  0  0
 45 46  1  0  0  0  0
 45154  1  0  0  0  0
 46 47  1  0  0  0  0
 46 49  1  0  0  0  0
 46155  1  1  0  0  0
 47 48  2  0  0  0  0
 47 51  1  0  0  0  0
 49 50  1  0  0  0  0
 49156  1  0  0  0  0
 49157  1  0  0  0  0
 50158  1  0  0  0  0
 51 52  1  0  0  0  0
 51159  1  0  0  0  0
 52 53  1  0  0  0  0
 52 55  1  0  0  0  0
 52160  1  6  0  0  0
 53 54  2  0  0  0  0
 53 59  1  0  0  0  0
 55 56  1  0  0  0  0
 55 57  1  0  0  0  0
 55161  1  1  0  0  0
 56 58  1  0  0  0  0
 56162  1  0  0  0  0
 56163  1  0  0  0  0
 57164  1  0  0  0  0
 57165  1  0  0  0  0
 57166  1  0  0  0  0
 58167  1  0  0  0  0
 58168  1  0  0  0  0
 58169  1  0  0  0  0
 59 60  1  0  0  0  0
 59170  1  0  0  0  0
 60 61  1  0  0  0  0
 60 63  1  0  0  0  0
 60171  1  1  0  0  0
 61 62  2  0  0  0  0
 61 70  1  0  0  0  0
 63 64  1  0  0  0  0
 63172  1  0  0  0  0
 63173  1  0  0  0  0
 64 65  1  0  0  0  0
 64174  1  0  0  0  0
 64175  1  0  0  0  0
 65 66  1  0  0  0  0
 65176  1  0  0  0  0
 65177  1  0  0  0  0
 66 67  1  0  0  0  0
 66178  1  0  0  0  0
 67 68  1  0  0  0  0
 67 69  1  0  0  0  0
 68179  1  0  0  0  0
 68180  1  0  0  0  0
 69181  1  0  0  0  0
 69182  1  0  0  0  0
 70 71  1  0  0  0  0
 70183  1  0  0  0  0
 71 72  1  0  0  0  0
 71 74  1  0  0  0  0
 71184  1  6  0  0  0
 72 73  2  0  0  0  0
 72 81  1  0  0  0  0
 74 75  1  0  0  0  0
 74185  1  0  0  0  0
 74186  1  0  0  0  0
 75 76  1  0  0  0  0
 75187  1  0  0  0  0
 75188  1  0  0  0  0
 76 77  1  0  0  0  0
 76189  1  0  0  0  0
 76190  1  0  0  0  0
 77 78  1  0  0  0  0
 77191  1  0  0  0  0
 78 79  1  0  0  0  0
 78 80  1  0  0  0  0
 79192  1  0  0  0  0
 79193  1  0  0  0  0
 80194  1  0  0  0  0
 80195  1  0  0  0  0
 81 82  1  0  0  0  0
 81196  1  0  0  0  0
 82 83  1  0  0  0  0
 82 85  1  0  0  0  0
 82197  1  1  0  0  0
 83 84  2  0  0  0  0
 83 87  1  0  0  0  0
 85 86  1  0  0  0  0
 85198  1  0  0  0  0
 85199  1  0  0  0  0
 86200  1  0  0  0  0
 87 88  1  0  0  0  0
 87201  1  0  0  0  0
 88 89  1  0  0  0  0
 88 91  1  0  0  0  0
 88202  1  1  0  0  0
 89 90  2  0  0  0  0
 89 95  1  0  0  0  0
 91 92  1  0  0  0  0
 91203  1  0  0  0  0
 91204  1  0  0  0  0
 92 93  1  0  0  0  0
 92205  1  0  0  0  0
 92206  1  0  0  0  0
 93 94  1  0  0  0  0
 94207  1  0  0  0  0
 94208  1  0  0  0  0
 94209  1  0  0  0  0
 95 96  1  0  0  0  0
 95210  1  0  0  0  0
 96 97  1  0  0  0  0
 96 99  1  0  0  0  0
 96211  1  6  0  0  0
 97 98  2  0  0  0  0
 97100  1  0  0  0  0
 99212  1  0  0  0  0
 99213  1  0  0  0  0
 99214  1  0  0  0  0
100101  1  0  0  0  0
100215  1  0  0  0  0
101102  1  0  0  0  0
101104  1  0  0  0  0
101216  1  6  0  0  0
102103  2  0  0  0  0
102109  1  0  0  0  0
104105  1  0  0  0  0
104217  1  0  0  0  0
104218  1  0  0  0  0
105106  1  0  0  0  0
105219  1  0  0  0  0
105220  1  0  0  0  0
106107  1  0  0  0  0
106108  2  0  0  0  0
109110  1  0  0  0  0
109221  1  0  0  0  0
110111  1  0  0  0  0
110113  1  0  0  0  0
110222  1  1  0  0  0
111112  1  0  0  0  0
111115  2  0  0  0  0
113114  1  0  0  0  0
113223  1  0  0  0  0
113224  1  0  0  0  0
114225  1  0  0  0  0
M  CHG  2 107  -1 112  -1
M  END
