4qyg_ligand
 OpenBabel08222323353D

 50 54  0  0  0  0  0  0  0  0999 V2000
    7.4340    5.0830   14.7350 O   0  5  0  0  0  0  0  0  0  0  0  0
    8.1590    5.9650   15.2480 C   0  0  0  0  0  0  0  0  0  0  0  0
    9.3600    6.1040   14.9280 O   0  0  0  0  0  0  0  0  0  0  0  0
    7.5880    6.8690   16.2920 C   0  0  0  0  0  0  0  0  0  0  0  0
    8.4080    7.8090   16.8210 N   0  0  0  0  0  0  0  0  0  0  0  0
    7.9750    8.6750   17.7580 C   0  0  0  0  0  0  0  0  0  0  0  0
    6.6640    8.6120   18.2060 C   0  0  0  0  0  0  0  0  0  0  0  0
    5.9400    9.3310   19.1150 N   0  0  0  0  0  0  0  0  0  0  0  0
    4.6780    8.8420   19.1670 C   0  0  0  0  0  0  0  0  0  0  0  0
    6.2500    6.7610   16.7130 C   0  0  0  0  0  0  0  0  0  0  0  0
    5.8100    7.6570   17.6870 C   0  0  0  0  0  0  0  0  0  0  0  0
    4.5760    7.7990   18.2850 C   0  0  0  0  0  0  0  0  0  0  0  0
    3.3610    7.1220   18.1270 C   0  0  0  0  0  0  0  0  0  0  0  0
    2.2680    7.5570   18.9130 C   0  0  0  0  0  0  0  0  0  0  0  0
    2.4640    8.6420   19.7850 C   0  0  0  0  0  0  0  0  0  0  0  0
    3.6460    9.2660   19.9210 N   0  0  0  0  0  0  0  0  0  0  0  0
    0.9020    6.9300   18.8240 C   0  0  0  0  0  0  0  0  0  0  0  0
    0.5100    6.2380   17.6750 C   0  0  0  0  0  0  0  0  0  0  0  0
   -0.7580    5.6740   17.5550 C   0  0  0  0  0  0  0  0  0  0  0  0
   -1.6920    5.7910   18.5910 C   0  0  0  0  0  0  0  0  0  0  0  0
   -1.3120    6.5040   19.7280 C   0  0  0  0  0  0  0  0  0  0  0  0
   -0.0420    7.0680   19.8480 C   0  0  0  0  0  0  0  0  0  0  0  0
   -2.9370    5.2230   18.4740 N   0  0  0  0  0  0  0  0  0  0  0  0
   -4.0040    5.7430   19.3380 C   0  0  0  0  0  0  0  0  0  0  0  0
   -5.3680    5.2720   18.8370 C   0  0  0  0  0  0  0  0  0  0  0  0
   -5.3620    3.8170   18.6230 N   0  3  0  0  0  0  0  0  0  0  0  0
   -6.6990    3.3320   18.2310 C   0  0  0  0  0  0  0  0  0  0  0  0
   -4.3730    3.5060   17.5790 C   0  0  0  0  0  0  0  0  0  0  0  0
   -2.9840    3.8050   18.1140 C   0  0  0  0  0  0  0  0  0  0  0  0
    8.6508    9.4204   18.1614 H   0  0  0  0  0  0  0  0  0  0  0  0
    6.2974   10.1200   19.6724 H   0  0  0  0  0  0  0  0  0  0  0  0
    5.5872    6.0110   16.2968 H   0  0  0  0  0  0  0  0  0  0  0  0
    3.2615    6.2975   17.4303 H   0  0  0  0  0  0  0  0  0  0  0  0
    1.6237    8.9909   20.3742 H   0  0  0  0  0  0  0  0  0  0  0  0
    1.2117    6.1374   16.8549 H   0  0  0  0  0  0  0  0  0  0  0  0
   -1.0241    5.1392   16.6504 H   0  0  0  0  0  0  0  0  0  0  0  0
   -2.0216    6.6228   20.5388 H   0  0  0  0  0  0  0  0  0  0  0  0
    0.2168    7.6195   20.7446 H   0  0  0  0  0  0  0  0  0  0  0  0
   -3.9742    6.8426   19.3298 H   0  0  0  0  0  0  0  0  0  0  0  0
   -3.8492    5.3796   20.3646 H   0  0  0  0  0  0  0  0  0  0  0  0
   -5.5993    5.7768   17.8875 H   0  0  0  0  0  0  0  0  0  0  0  0
   -6.1353    5.5252   19.5834 H   0  0  0  0  0  0  0  0  0  0  0  0
   -5.0927    3.3598   19.4800 H   0  0  0  0  0  0  0  0  0  0  0  0
   -6.6638    2.2432   18.0782 H   0  0  0  0  0  0  0  0  0  0  0  0
   -7.0080    3.8235   17.2967 H   0  0  0  0  0  0  0  0  0  0  0  0
   -7.4221    3.5675   19.0258 H   0  0  0  0  0  0  0  0  0  0  0  0
   -4.5674    4.1241   16.6901 H   0  0  0  0  0  0  0  0  0  0  0  0
   -4.4435    2.4421   17.3085 H   0  0  0  0  0  0  0  0  0  0  0  0
   -2.7843    3.1870   19.0018 H   0  0  0  0  0  0  0  0  0  0  0  0
   -2.2314    3.5903   17.3410 H   0  0  0  0  0  0  0  0  0  0  0  0
  1  2  1  0  0  0  0
  2  3  2  0  0  0  0
  2  4  1  0  0  0  0
  4  5  2  0  0  0  0
  4 10  1  0  0  0  0
  5  6  1  0  0  0  0
  6  7  2  0  0  0  0
  6 30  1  0  0  0  0
  7  8  1  0  0  0  0
  7 11  1  0  0  0  0
  8  9  1  0  0  0  0
  8 31  1  0  0  0  0
  9 12  2  0  0  0  0
  9 16  1  0  0  0  0
 10 11  2  0  0  0  0
 10 32  1  0  0  0  0
 11 12  1  0  0  0  0
 12 13  1  0  0  0  0
 13 14  2  0  0  0  0
 13 33  1  0  0  0  0
 14 15  1  0  0  0  0
 14 17  1  0  0  0  0
 15 16  2  0  0  0  0
 15 34  1  0  0  0  0
 17 18  2  0  0  0  0
 17 22  1  0  0  0  0
 18 19  1  0  0  0  0
 18 35  1  0  0  0  0
 19 20  2  0  0  0  0
 19 36  1  0  0  0  0
 20 21  1  0  0  0  0
 20 23  1  0  0  0  0
 21 22  2  0  0  0  0
 21 37  1  0  0  0  0
 22 38  1  0  0  0  0
 23 24  1  0  0  0  0
 23 29  1  0  0  0  0
 24 25  1  0  0  0  0
 24 39  1  0  0  0  0
 24 40  1  0  0  0  0
 25 26  1  0  0  0  0
 25 41  1  0  0  0  0
 25 42  1  0  0  0  0
 26 27  1  0  0  0  0
 26 28  1  0  0  0  0
 26 43  1  0  0  0  0
 27 44  1  0  0  0  0
 27 45  1  0  0  0  0
 27 46  1  0  0  0  0
 28 29  1  0  0  0  0
 28 47  1  0  0  0  0
 28 48  1  0  0  0  0
 29 49  1  0  0  0  0
 29 50  1  0  0  0  0
M  CHG  2   1  -1  26   1
M  END
