4qyh_ligand
 OpenBabel08222323353D

 49 53  0  0  0  0  0  0  0  0999 V2000
    9.0010    5.8190   14.9130 N   0  0  0  0  0  0  0  0  0  0  0  0
    8.4420    6.4980   15.6680 C   0  0  0  0  0  0  0  0  0  0  0  0
    7.8520    7.2660   16.5130 C   0  0  0  0  0  0  0  0  0  0  0  0
    8.6010    8.2590   17.0470 N   0  0  0  0  0  0  0  0  0  0  0  0
    8.1030    9.1310   17.9350 C   0  0  0  0  0  0  0  0  0  0  0  0
    6.7780    9.0360   18.3240 C   0  0  0  0  0  0  0  0  0  0  0  0
    5.9990    9.7610   19.1760 N   0  0  0  0  0  0  0  0  0  0  0  0
    4.7550    9.2310   19.1900 C   0  0  0  0  0  0  0  0  0  0  0  0
    6.4990    7.1230   16.8650 C   0  0  0  0  0  0  0  0  0  0  0  0
    5.9780    8.0350   17.7930 C   0  0  0  0  0  0  0  0  0  0  0  0
    4.7130    8.1620   18.3340 C   0  0  0  0  0  0  0  0  0  0  0  0
    3.5190    7.4500   18.1700 C   0  0  0  0  0  0  0  0  0  0  0  0
    2.3970    7.8960   18.9030 C   0  0  0  0  0  0  0  0  0  0  0  0
    2.5250    8.9980   19.7590 C   0  0  0  0  0  0  0  0  0  0  0  0
    3.6870    9.6540   19.8960 N   0  0  0  0  0  0  0  0  0  0  0  0
    1.0570    7.2260   18.8110 C   0  0  0  0  0  0  0  0  0  0  0  0
    0.6910    6.5220   17.6610 C   0  0  0  0  0  0  0  0  0  0  0  0
   -0.5540    5.9020   17.5690 C   0  0  0  0  0  0  0  0  0  0  0  0
   -1.4820    5.9790   18.6190 C   0  0  0  0  0  0  0  0  0  0  0  0
   -1.1170    6.6870   19.7630 C   0  0  0  0  0  0  0  0  0  0  0  0
    0.1280    7.3070   19.8590 C   0  0  0  0  0  0  0  0  0  0  0  0
   -2.7020    5.3580   18.5660 N   0  0  0  0  0  0  0  0  0  0  0  0
   -2.9250    4.2980   17.5810 C   0  0  0  0  0  0  0  0  0  0  0  0
   -3.8110    3.2760   18.2750 C   0  0  0  0  0  0  0  0  0  0  0  0
   -5.0650    3.9020   18.7350 N   0  3  0  0  0  0  0  0  0  0  0  0
   -5.8790    2.8850   19.4360 C   0  0  0  0  0  0  0  0  0  0  0  0
   -4.7840    5.0520   19.6260 C   0  0  0  0  0  0  0  0  0  0  0  0
   -3.9120    6.0900   18.9250 C   0  0  0  0  0  0  0  0  0  0  0  0
    8.7361    9.9083   18.3473 H   0  0  0  0  0  0  0  0  0  0  0  0
    6.3076   10.5791   19.7204 H   0  0  0  0  0  0  0  0  0  0  0  0
    5.8839    6.3399   16.4366 H   0  0  0  0  0  0  0  0  0  0  0  0
    3.4581    6.5931   17.5088 H   0  0  0  0  0  0  0  0  0  0  0  0
    1.6621    9.3291   20.3255 H   0  0  0  0  0  0  0  0  0  0  0  0
    1.3839    6.4572   16.8299 H   0  0  0  0  0  0  0  0  0  0  0  0
   -0.8098    5.3510   16.6712 H   0  0  0  0  0  0  0  0  0  0  0  0
   -1.8126    6.7566   20.5915 H   0  0  0  0  0  0  0  0  0  0  0  0
    0.3818    7.8596   20.7564 H   0  0  0  0  0  0  0  0  0  0  0  0
   -1.9692    3.8404   17.2861 H   0  0  0  0  0  0  0  0  0  0  0  0
   -3.4289    4.7012   16.6902 H   0  0  0  0  0  0  0  0  0  0  0  0
   -3.2747    2.8620   19.1416 H   0  0  0  0  0  0  0  0  0  0  0  0
   -4.0490    2.4660   17.5699 H   0  0  0  0  0  0  0  0  0  0  0  0
   -5.5771    4.2351   17.9332 H   0  0  0  0  0  0  0  0  0  0  0  0
   -6.8173    3.3421   19.7834 H   0  0  0  0  0  0  0  0  0  0  0  0
   -5.3181    2.4979   20.2994 H   0  0  0  0  0  0  0  0  0  0  0  0
   -6.1070    2.0588   18.7465 H   0  0  0  0  0  0  0  0  0  0  0  0
   -4.2613    4.6913   20.5241 H   0  0  0  0  0  0  0  0  0  0  0  0
   -5.7352    5.5206   19.9186 H   0  0  0  0  0  0  0  0  0  0  0  0
   -4.4140    6.4783   18.0266 H   0  0  0  0  0  0  0  0  0  0  0  0
   -3.6768    6.9237   19.6030 H   0  0  0  0  0  0  0  0  0  0  0  0
  1  2  3  0  0  0  0
  2  3  1  0  0  0  0
  3  4  2  0  0  0  0
  3  9  1  0  0  0  0
  4  5  1  0  0  0  0
  5  6  2  0  0  0  0
  5 29  1  0  0  0  0
  6  7  1  0  0  0  0
  6 10  1  0  0  0  0
  7  8  1  0  0  0  0
  7 30  1  0  0  0  0
  8 11  2  0  0  0  0
  8 15  1  0  0  0  0
  9 10  2  0  0  0  0
  9 31  1  0  0  0  0
 10 11  1  0  0  0  0
 11 12  1  0  0  0  0
 12 13  2  0  0  0  0
 12 32  1  0  0  0  0
 13 14  1  0  0  0  0
 13 16  1  0  0  0  0
 14 15  2  0  0  0  0
 14 33  1  0  0  0  0
 16 17  2  0  0  0  0
 16 21  1  0  0  0  0
 17 18  1  0  0  0  0
 17 34  1  0  0  0  0
 18 19  2  0  0  0  0
 18 35  1  0  0  0  0
 19 20  1  0  0  0  0
 19 22  1  0  0  0  0
 20 21  2  0  0  0  0
 20 36  1  0  0  0  0
 21 37  1  0  0  0  0
 22 23  1  0  0  0  0
 22 28  1  0  0  0  0
 23 24  1  0  0  0  0
 23 38  1  0  0  0  0
 23 39  1  0  0  0  0
 24 25  1  0  0  0  0
 24 40  1  0  0  0  0
 24 41  1  0  0  0  0
 25 26  1  0  0  0  0
 25 27  1  0  0  0  0
 25 42  1  0  0  0  0
 26 43  1  0  0  0  0
 26 44  1  0  0  0  0
 26 45  1  0  0  0  0
 27 28  1  0  0  0  0
 27 46  1  0  0  0  0
 27 47  1  0  0  0  0
 28 48  1  0  0  0  0
 28 49  1  0  0  0  0
M  CHG  1  25   1
M  END
