4qyo_ligand
 OpenBabel08222323353D

163163  0  0  1  0  0  0  0  0999 V2000
   29.8300    6.2230   41.7540 C   0  0  0  0  0  0  0  0  0  0  0  0
   28.6420    5.8980   41.5600 O   0  0  0  0  0  0  0  0  0  0  0  0
   30.9220    5.8260   40.7960 C   0  0  0  0  0  0  0  0  0  0  0  0
   30.1980    7.1190   42.6820 N   0  0  0  0  0  0  0  0  0  0  0  0
   29.2710    7.5640   43.7280 C   0  0  2  0  0  0  0  0  0  0  0  0
   28.2350    8.5610   43.2180 C   0  0  0  0  0  0  0  0  0  0  0  0
   27.2550    8.9110   43.9380 O   0  0  0  0  0  0  0  0  0  0  0  0
   30.0060    8.1540   44.9290 C   0  0  0  0  0  0  0  0  0  0  0  0
   29.1300    8.2250   46.1710 C   0  0  0  0  0  0  0  0  0  0  0  0
   28.3220    7.3360   46.4370 O   0  0  0  0  0  0  0  0  0  0  0  0
   29.3020    9.2770   46.9460 N   0  0  0  0  0  0  0  0  0  0  0  0
   28.3800    8.9910   41.9650 N   0  0  0  0  0  0  0  0  0  0  0  0
   27.3520    9.8040   41.3610 C   0  0  2  0  0  0  0  0  0  0  0  0
   26.0350    9.0500   41.3160 C   0  0  0  0  0  0  0  0  0  0  0  0
   25.0050    9.6760   41.3050 O   0  0  0  0  0  0  0  0  0  0  0  0
   27.7360   10.2830   39.9600 C   0  0  0  0  0  0  0  0  0  0  0  0
   26.0520    7.7250   41.2670 N   0  0  0  0  0  0  0  0  0  0  0  0
   24.8050    6.9770   41.2550 C   0  0  2  0  0  0  0  0  0  0  0  0
   24.0070    7.2930   42.5160 C   0  0  0  0  0  0  0  0  0  0  0  0
   22.7900    7.5080   42.4660 O   0  0  0  0  0  0  0  0  0  0  0  0
   25.0820    5.4720   41.2020 C   0  0  0  0  0  0  0  0  0  0  0  0
   23.8470    4.5820   41.2620 C   0  0  0  0  0  0  0  0  0  0  0  0
   23.3570    3.9950   40.1190 C   0  0  0  0  0  0  0  0  0  0  0  0
   23.1970    4.3410   42.4570 C   0  0  0  0  0  0  0  0  0  0  0  0
   22.2510    3.1440   40.1710 C   0  0  0  0  0  0  0  0  0  0  0  0
   22.0930    3.5080   42.5210 C   0  0  0  0  0  0  0  0  0  0  0  0
   21.6210    2.9180   41.3800 C   0  0  0  0  0  0  0  0  0  0  0  0
   20.5170    2.0840   41.4780 O   0  0  0  0  0  0  0  0  0  0  0  0
   24.6830    7.2700   43.6560 N   0  0  0  0  0  0  0  0  0  0  0  0
   24.0120    7.4010   44.9410 C   0  0  2  0  0  0  0  0  0  0  0  0
   23.5990    8.8200   45.2680 C   0  0  0  0  0  0  0  0  0  0  0  0
   22.5750    9.0240   45.9400 O   0  0  0  0  0  0  0  0  0  0  0  0
   24.9130    6.8480   46.0440 C   0  0  0  0  0  0  0  0  0  0  0  0
   25.2410    5.4050   45.8310 C   0  0  0  0  0  0  0  0  0  0  0  0
   24.3520    4.5730   45.6820 O   0  0  0  0  0  0  0  0  0  0  0  0
   26.5370    5.0810   45.7850 N   0  0  0  0  0  0  0  0  0  0  0  0
   24.3740    9.8000   44.8060 N   0  0  0  0  0  0  0  0  0  0  0  0
   24.2290   11.1640   45.2980 C   0  0  2  0  0  0  0  0  0  0  0  0
   23.9310   12.2210   44.2520 C   0  0  0  0  0  0  0  0  0  0  0  0
   23.6840   13.3600   44.6270 O   0  0  0  0  0  0  0  0  0  0  0  0
   25.4720   11.5560   46.0820 C   0  0  0  0  0  0  0  0  0  0  0  0
   25.6710   10.7250   47.3290 C   0  0  0  0  0  0  0  0  0  0  0  0
   24.3630   11.0370   48.5300 S   0  0  0  0  0  0  0  0  0  0  0  0
   24.8520   12.6660   49.0880 C   0  0  0  0  0  0  0  0  0  0  0  0
   23.9220   11.8880   42.9640 N   0  0  0  0  0  0  0  0  0  0  0  0
   23.5190   12.8830   41.9610 C   0  0  2  0  0  0  0  0  0  0  0  0
   22.0080   13.0850   41.9190 C   0  0  0  0  0  0  0  0  0  0  0  0
   21.5310   14.0610   41.3520 O   0  0  0  0  0  0  0  0  0  0  0  0
   24.1020   12.6250   40.5580 C   0  0  0  0  0  0  0  0  0  0  0  0
   23.5620   11.4750   39.9260 O   0  0  0  0  0  0  0  0  0  0  0  0
   21.2600   12.1990   42.5650 N   0  0  0  0  0  0  0  0  0  0  0  0
   19.8550   12.4280   42.8930 C   0  0  2  0  0  0  0  0  0  0  0  0
   19.6810   12.0780   44.3660 C   0  0  0  0  0  0  0  0  0  0  0  0
   20.4210   11.2620   44.9050 O   0  0  0  0  0  0  0  0  0  0  0  0
   18.8550   11.6080   42.0260 C   0  0  2  0  0  0  0  0  0  0  0  0
   18.9590   10.1000   42.3130 C   0  0  0  0  0  0  0  0  0  0  0  0
   19.0560   11.9140   40.5480 C   0  0  0  0  0  0  0  0  0  0  0  0
   17.8190    9.2950   41.7320 C   0  0  0  0  0  0  0  0  0  0  0  0
   18.6820   12.6810   45.0180 N   0  0  0  0  0  0  0  0  0  0  0  0
   18.2980   12.2600   46.3530 C   0  0  2  0  0  0  0  0  0  0  0  0
   17.4470   10.9960   46.2860 C   0  0  0  0  0  0  0  0  0  0  0  0
   16.4040   10.9470   45.6510 O   0  0  0  0  0  0  0  0  0  0  0  0
   17.5180   13.3330   47.1110 C   0  0  0  0  0  0  0  0  0  0  0  0
   17.1470   12.8710   48.5120 C   0  0  0  0  0  0  0  0  0  0  0  0
   16.4660   13.9480   49.3220 C   0  0  0  0  0  0  0  0  0  0  0  0
   15.1790   14.2550   48.7290 N   0  0  0  0  0  0  0  0  0  0  0  0
   14.1380   13.4280   48.7430 C   0  0  0  0  0  3  0  0  0  0  0  0
   14.2270   12.2490   49.3480 N   0  0  0  0  0  0  0  0  0  0  0  0
   13.0020   13.7850   48.1610 N   0  0  0  0  0  0  0  0  0  0  0  0
   17.9260    9.9670   46.9520 N   0  0  0  0  0  0  0  0  0  0  0  0
   17.2420    8.6810   47.0060 C   0  0  2  0  0  0  0  0  0  0  0  0
   16.5510    8.5060   48.3570 C   0  0  0  0  0  0  0  0  0  0  0  0
   15.3440    8.2300   48.4200 O   0  0  0  0  0  0  0  0  0  0  0  0
   18.2340    7.5500   46.7090 C   0  0  0  0  0  0  0  0  0  0  0  0
   18.7670    7.6150   45.2900 C   0  0  0  0  0  0  0  0  0  0  0  0
   19.6530    6.4210   44.9280 C   0  0  0  0  0  0  0  0  0  0  0  0
   20.2710    6.5700   43.6100 N   0  0  0  0  0  0  0  0  0  0  0  0
   19.7780    6.1170   42.4650 C   0  0  0  0  0  3  0  0  0  0  0  0
   18.6470    5.4350   42.4470 N   0  0  0  0  0  0  0  0  0  0  0  0
   20.4230    6.3370   41.3300 N   0  0  0  0  0  0  0  0  0  0  0  0
   17.2820    8.7180   49.4340 N   0  0  0  0  0  0  0  0  0  0  0  0
   31.8857    6.2144   41.1572 H   0  0  0  0  0  0  0  0  0  0  0  0
   30.7075    6.2445   39.8016 H   0  0  0  0  0  0  0  0  0  0  0  0
   30.9706    4.7291   40.7295 H   0  0  0  0  0  0  0  0  0  0  0  0
   31.1255    7.4921   42.6602 H   0  0  0  0  0  0  0  0  0  0  0  0
   28.7274    6.6732   44.0756 H   0  0  0  0  0  0  0  0  0  0  0  0
   30.3393    9.1708   44.6739 H   0  0  0  0  0  0  0  0  0  0  0  0
   30.8814    7.5258   45.1503 H   0  0  0  0  0  0  0  0  0  0  0  0
   28.7556    9.3804   47.7771 H   0  0  0  0  0  0  0  0  0  0  0  0
   29.9789    9.9718   46.7029 H   0  0  0  0  0  0  0  0  0  0  0  0
   29.1994    8.7508   41.4444 H   0  0  0  0  0  0  0  0  0  0  0  0
   27.2151   10.6936   41.9933 H   0  0  0  0  0  0  0  0  0  0  0  0
   26.9217   10.8959   39.5461 H   0  0  0  0  0  0  0  0  0  0  0  0
   27.9072    9.4129   39.3091 H   0  0  0  0  0  0  0  0  0  0  0  0
   28.6551   10.8847   40.0173 H   0  0  0  0  0  0  0  0  0  0  0  0
   26.9252    7.2385   41.2382 H   0  0  0  0  0  0  0  0  0  0  0  0
   24.2196    7.2680   40.3703 H   0  0  0  0  0  0  0  0  0  0  0  0
   25.7283    5.2148   42.0541 H   0  0  0  0  0  0  0  0  0  0  0  0
   25.6113    5.2564   40.2621 H   0  0  0  0  0  0  0  0  0  0  0  0
   23.8347    4.1952   39.1668 H   0  0  0  0  0  0  0  0  0  0  0  0
   23.5587    4.8137   43.3630 H   0  0  0  0  0  0  0  0  0  0  0  0
   21.8891    2.6639   39.2690 H   0  0  0  0  0  0  0  0  0  0  0  0
   21.6045    3.3239   43.4710 H   0  0  0  0  0  0  0  0  0  0  0  0
   20.2995    1.7460   40.6172 H   0  0  0  0  0  0  0  0  0  0  0  0
   25.6767    7.1601   43.6327 H   0  0  0  0  0  0  0  0  0  0  0  0
   23.0975    6.7909   44.9031 H   0  0  0  0  0  0  0  0  0  0  0  0
   24.3982    6.9559   47.0101 H   0  0  0  0  0  0  0  0  0  0  0  0
   25.8489    7.4258   46.0606 H   0  0  0  0  0  0  0  0  0  0  0  0
   26.8098    4.1292   45.6446 H   0  0  0  0  0  0  0  0  0  0  0  0
   27.2338    5.7904   45.8910 H   0  0  0  0  0  0  0  0  0  0  0  0
   25.0648    9.5969   44.1120 H   0  0  0  0  0  0  0  0  0  0  0  0
   23.3768   11.1598   45.9935 H   0  0  0  0  0  0  0  0  0  0  0  0
   25.3826   12.6123   46.3755 H   0  0  0  0  0  0  0  0  0  0  0  0
   26.3506   11.4290   45.4324 H   0  0  0  0  0  0  0  0  0  0  0  0
   26.6414   10.9799   47.7799 H   0  0  0  0  0  0  0  0  0  0  0  0
   25.6620    9.6594   47.0563 H   0  0  0  0  0  0  0  0  0  0  0  0
   24.1411   13.0219   49.8482 H   0  0  0  0  0  0  0  0  0  0  0  0
   24.8546   13.3604   48.2349 H   0  0  0  0  0  0  0  0  0  0  0  0
   25.8608   12.6168   49.5239 H   0  0  0  0  0  0  0  0  0  0  0  0
   24.1878   10.9666   42.6805 H   0  0  0  0  0  0  0  0  0  0  0  0
   23.9484   13.8387   42.2960 H   0  0  0  0  0  0  0  0  0  0  0  0
   25.1900   12.4929   40.6514 H   0  0  0  0  0  0  0  0  0  0  0  0
   23.8918   13.5009   39.9266 H   0  0  0  0  0  0  0  0  0  0  0  0
   23.7443   10.7084   40.4567 H   0  0  0  0  0  0  0  0  0  0  0  0
   21.6782   11.3334   42.8403 H   0  0  0  0  0  0  0  0  0  0  0  0
   19.6326   13.4950   42.7447 H   0  0  0  0  0  0  0  0  0  0  0  0
   17.8378   11.9263   42.2978 H   0  0  0  0  0  0  0  0  0  0  0  0
   18.9687    9.9530   43.4031 H   0  0  0  0  0  0  0  0  0  0  0  0
   19.9014    9.7283   41.8844 H   0  0  0  0  0  0  0  0  0  0  0  0
   18.9746   12.9986   40.3838 H   0  0  0  0  0  0  0  0  0  0  0  0
   18.2861   11.3951   39.9581 H   0  0  0  0  0  0  0  0  0  0  0  0
   20.0525   11.5695   40.2344 H   0  0  0  0  0  0  0  0  0  0  0  0
   17.9596    8.2316   41.9757 H   0  0  0  0  0  0  0  0  0  0  0  0
   17.8003    9.4214   40.6395 H   0  0  0  0  0  0  0  0  0  0  0  0
   16.8676    9.6461   42.1581 H   0  0  0  0  0  0  0  0  0  0  0  0
   18.1915   13.4339   44.5792 H   0  0  0  0  0  0  0  0  0  0  0  0
   19.2168   12.0389   46.9160 H   0  0  0  0  0  0  0  0  0  0  0  0
   16.5970   13.5640   46.5558 H   0  0  0  0  0  0  0  0  0  0  0  0
   18.1377   14.2387   47.1863 H   0  0  0  0  0  0  0  0  0  0  0  0
   18.0646   12.5647   49.0356 H   0  0  0  0  0  0  0  0  0  0  0  0
   16.4670   12.0103   48.4297 H   0  0  0  0  0  0  0  0  0  0  0  0
   17.0918   14.8526   49.3295 H   0  0  0  0  0  0  0  0  0  0  0  0
   16.3199   13.5946   50.3534 H   0  0  0  0  0  0  0  0  0  0  0  0
   15.0642   15.1694   48.2689 H   0  0  0  0  0  0  0  0  0  0  0  0
   13.4177   11.6119   49.3561 H   0  0  0  0  0  0  0  0  0  0  0  0
   15.1053   11.9718   49.8091 H   0  0  0  0  0  0  0  0  0  0  0  0
   12.9291   14.6985   47.6908 H   0  0  0  0  0  0  0  0  0  0  0  0
   12.1921   13.1489   48.1789 H   0  0  0  0  0  0  0  0  0  0  0  0
   18.7927   10.0714   47.4398 H   0  0  0  0  0  0  0  0  0  0  0  0
   16.4672    8.6669   46.2253 H   0  0  0  0  0  0  0  0  0  0  0  0
   17.7253    6.5854   46.8527 H   0  0  0  0  0  0  0  0  0  0  0  0
   19.0791    7.6267   47.4089 H   0  0  0  0  0  0  0  0  0  0  0  0
   19.3581    8.5361   45.1796 H   0  0  0  0  0  0  0  0  0  0  0  0
   17.9139    7.6413   44.5961 H   0  0  0  0  0  0  0  0  0  0  0  0
   19.0370    5.5097   44.9293 H   0  0  0  0  0  0  0  0  0  0  0  0
   20.4474    6.3277   45.6831 H   0  0  0  0  0  0  0  0  0  0  0  0
   21.1695    7.0717   43.5676 H   0  0  0  0  0  0  0  0  0  0  0  0
   18.2701    5.0863   41.5541 H   0  0  0  0  0  0  0  0  0  0  0  0
   18.1420    5.2519   43.3258 H   0  0  0  0  0  0  0  0  0  0  0  0
   21.3057    6.8678   41.3338 H   0  0  0  0  0  0  0  0  0  0  0  0
   20.0421    5.9774   40.4431 H   0  0  0  0  0  0  0  0  0  0  0  0
   16.8757    8.6163   50.3421 H   0  0  0  0  0  0  0  0  0  0  0  0
   18.2426    8.9804   49.3426 H   0  0  0  0  0  0  0  0  0  0  0  0
  1  2  2  0  0  0  0
  1  3  1  0  0  0  0
  1  4  1  0  0  0  0
  3 82  1  0  0  0  0
  3 83  1  0  0  0  0
  3 84  1  0  0  0  0
  4  5  1  0  0  0  0
  4 85  1  0  0  0  0
  5  6  1  0  0  0  0
  5  8  1  0  0  0  0
  5 86  1  1  0  0  0
  6  7  2  0  0  0  0
  6 12  1  0  0  0  0
  8  9  1  0  0  0  0
  8 87  1  0  0  0  0
  8 88  1  0  0  0  0
  9 10  2  0  0  0  0
  9 11  1  0  0  0  0
 11 89  1  0  0  0  0
 11 90  1  0  0  0  0
 12 13  1  0  0  0  0
 12 91  1  0  0  0  0
 13 14  1  0  0  0  0
 13 16  1  0  0  0  0
 13 92  1  1  0  0  0
 14 15  2  0  0  0  0
 14 17  1  0  0  0  0
 16 93  1  0  0  0  0
 16 94  1  0  0  0  0
 16 95  1  0  0  0  0
 17 18  1  0  0  0  0
 17 96  1  0  0  0  0
 18 19  1  0  0  0  0
 18 21  1  0  0  0  0
 18 97  1  6  0  0  0
 19 20  2  0  0  0  0
 19 29  1  0  0  0  0
 21 22  1  0  0  0  0
 21 98  1  0  0  0  0
 21 99  1  0  0  0  0
 22 23  2  0  0  0  0
 22 24  1  0  0  0  0
 23 25  1  0  0  0  0
 23100  1  0  0  0  0
 24 26  2  0  0  0  0
 24101  1  0  0  0  0
 25 27  2  0  0  0  0
 25102  1  0  0  0  0
 26 27  1  0  0  0  0
 26103  1  0  0  0  0
 27 28  1  0  0  0  0
 28104  1  0  0  0  0
 29 30  1  0  0  0  0
 29105  1  0  0  0  0
 30 31  1  0  0  0  0
 30 33  1  0  0  0  0
 30106  1  6  0  0  0
 31 32  2  0  0  0  0
 31 37  1  0  0  0  0
 33 34  1  0  0  0  0
 33107  1  0  0  0  0
 33108  1  0  0  0  0
 34 35  2  0  0  0  0
 34 36  1  0  0  0  0
 36109  1  0  0  0  0
 36110  1  0  0  0  0
 37 38  1  0  0  0  0
 37111  1  0  0  0  0
 38 39  1  0  0  0  0
 38 41  1  0  0  0  0
 38112  1  1  0  0  0
 39 40  2  0  0  0  0
 39 45  1  0  0  0  0
 41 42  1  0  0  0  0
 41113  1  0  0  0  0
 41114  1  0  0  0  0
 42 43  1  0  0  0  0
 42115  1  0  0  0  0
 42116  1  0  0  0  0
 43 44  1  0  0  0  0
 44117  1  0  0  0  0
 44118  1  0  0  0  0
 44119  1  0  0  0  0
 45 46  1  0  0  0  0
 45120  1  0  0  0  0
 46 47  1  0  0  0  0
 46 49  1  0  0  0  0
 46121  1  1  0  0  0
 47 48  2  0  0  0  0
 47 51  1  0  0  0  0
 49 50  1  0  0  0  0
 49122  1  0  0  0  0
 49123  1  0  0  0  0
 50124  1  0  0  0  0
 51 52  1  0  0  0  0
 51125  1  0  0  0  0
 52 53  1  0  0  0  0
 52 55  1  0  0  0  0
 52126  1  6  0  0  0
 53 54  2  0  0  0  0
 53 59  1  0  0  0  0
 55 56  1  0  0  0  0
 55 57  1  0  0  0  0
 55127  1  1  0  0  0
 56 58  1  0  0  0  0
 56128  1  0  0  0  0
 56129  1  0  0  0  0
 57130  1  0  0  0  0
 57131  1  0  0  0  0
 57132  1  0  0  0  0
 58133  1  0  0  0  0
 58134  1  0  0  0  0
 58135  1  0  0  0  0
 59 60  1  0  0  0  0
 59136  1  0  0  0  0
 60 61  1  0  0  0  0
 60 63  1  0  0  0  0
 60137  1  1  0  0  0
 61 62  2  0  0  0  0
 61 70  1  0  0  0  0
 63 64  1  0  0  0  0
 63138  1  0  0  0  0
 63139  1  0  0  0  0
 64 65  1  0  0  0  0
 64140  1  0  0  0  0
 64141  1  0  0  0  0
 65 66  1  0  0  0  0
 65142  1  0  0  0  0
 65143  1  0  0  0  0
 66 67  1  0  0  0  0
 66144  1  0  0  0  0
 67 68  1  0  0  0  0
 67 69  1  0  0  0  0
 68145  1  0  0  0  0
 68146  1  0  0  0  0
 69147  1  0  0  0  0
 69148  1  0  0  0  0
 70 71  1  0  0  0  0
 70149  1  0  0  0  0
 71 72  1  0  0  0  0
 71 74  1  0  0  0  0
 71150  1  6  0  0  0
 72 73  2  0  0  0  0
 72 81  1  0  0  0  0
 74 75  1  0  0  0  0
 74151  1  0  0  0  0
 74152  1  0  0  0  0
 75 76  1  0  0  0  0
 75153  1  0  0  0  0
 75154  1  0  0  0  0
 76 77  1  0  0  0  0
 76155  1  0  0  0  0
 76156  1  0  0  0  0
 77 78  1  0  0  0  0
 77157  1  0  0  0  0
 78 79  1  0  0  0  0
 78 80  1  0  0  0  0
 79158  1  0  0  0  0
 79159  1  0  0  0  0
 80160  1  0  0  0  0
 80161  1  0  0  0  0
 81162  1  0  0  0  0
 81163  1  0  0  0  0
M  END
