4qz1_ligand
 OpenBabel08222323353D

 87 89  0  0  1  0  0  0  0  0999 V2000
   59.5780 -134.2350   34.8760 C   0  0  0  0  0  0  0  0  0  0  0  0
   59.5930 -135.4540   35.0410 O   0  0  0  0  0  0  0  0  0  0  0  0
   58.4640 -133.5810   34.0480 C   0  0  0  0  0  0  0  0  0  0  0  0
   57.2960 -133.6770   34.9120 N   0  3  0  0  0  0  0  0  0  0  0  0
   54.7820 -133.0830   35.8600 O   0  0  0  0  0  0  0  0  0  0  0  0
   56.1450 -134.2850   34.2200 C   0  0  0  0  0  0  0  0  0  0  0  0
   56.9480 -132.3620   35.4510 C   0  0  0  0  0  0  0  0  0  0  0  0
   55.0290 -134.3530   35.1910 C   0  0  0  0  0  0  0  0  0  0  0  0
   55.9350 -132.5130   36.5160 C   0  0  0  0  0  0  0  0  0  0  0  0
   60.4730 -133.3910   35.4130 N   0  0  0  0  0  0  0  0  0  0  0  0
   61.5840 -133.8780   36.2420 C   0  0  2  0  0  0  0  0  0  0  0  0
   61.1190 -133.9790   37.6890 C   0  0  0  0  0  0  0  0  0  0  0  0
   60.3620 -133.1310   38.1620 O   0  0  0  0  0  0  0  0  0  0  0  0
   62.7620 -132.9050   36.1670 C   0  0  0  0  0  0  0  0  0  0  0  0
   61.6070 -135.0390   38.3540 N   0  0  0  0  0  0  0  0  0  0  0  0
   61.3030 -135.2860   39.7680 C   0  0  1  0  0  0  0  0  0  0  0  0
   60.7340 -136.6630   39.9730 C   0  0  0  0  0  0  0  0  0  0  0  0
   59.3650 -136.5580   39.7530 C   0  0  0  0  0  0  0  0  0  0  0  0
   58.8420 -136.6810   38.4710 C   0  0  0  0  0  0  0  0  0  0  0  0
   57.4700 -136.5820   38.2570 C   0  0  0  0  0  0  0  0  0  0  0  0
   56.6040 -136.3630   39.3400 C   0  0  0  0  0  0  0  0  0  0  0  0
   55.2410 -136.2410   39.2510 O   0  0  0  0  0  0  0  0  0  0  0  0
   54.5960 -136.5510   38.0070 C   0  0  0  0  0  0  0  0  0  0  0  0
   57.1400 -136.2420   40.6160 C   0  0  0  0  0  0  0  0  0  0  0  0
   58.5070 -136.3390   40.8260 C   0  0  0  0  0  0  0  0  0  0  0  0
   62.6160 -135.2020   40.5430 C   0  0  0  0  0  0  0  0  0  0  0  0
   63.7030 -135.3360   39.9740 O   0  0  0  0  0  0  0  0  0  0  0  0
   62.4500 -135.0050   41.8600 N   0  0  0  0  0  0  0  0  0  0  0  0
   63.5670 -134.8640   42.7940 C   0  0  2  0  0  0  0  0  0  0  0  0
   63.4790 -135.9100   43.9220 C   0  0  1  0  0  0  0  0  0  0  0  0
   62.1650 -135.8870   44.4820 O   0  0  0  0  0  0  0  0  0  0  0  0
   63.8790 -137.4210   43.5700 C   0  0  2  0  0  0  0  0  0  0  0  0
   65.0560 -137.4550   42.5510 C   0  0  0  0  0  0  0  0  0  0  0  0
   62.6560 -138.0890   42.9530 C   0  0  0  0  0  0  0  0  0  0  0  0
   63.0970 -139.2990   42.3160 O   0  0  0  0  0  0  0  0  0  0  0  0
   63.4420 -133.4960   43.4560 C   0  0  0  0  0  0  0  0  0  0  0  0
   64.2010 -132.4790   42.8260 C   0  0  0  0  0  0  0  0  0  0  0  0
   64.8800 -132.6130   41.6040 C   0  0  0  0  0  0  0  0  0  0  0  0
   65.5860 -131.5380   41.0670 C   0  0  0  0  0  0  0  0  0  0  0  0
   65.6200 -130.3140   41.7300 C   0  0  0  0  0  0  0  0  0  0  0  0
   64.9470 -130.1610   42.9370 C   0  0  0  0  0  0  0  0  0  0  0  0
   64.2450 -131.2380   43.4740 C   0  0  0  0  0  0  0  0  0  0  0  0
   58.3022 -134.1264   33.1065 H   0  0  0  0  0  0  0  0  0  0  0  0
   58.7038 -132.5305   33.8267 H   0  0  0  0  0  0  0  0  0  0  0  0
   57.5365 -134.2754   35.6867 H   0  0  0  0  0  0  0  0  0  0  0  0
   56.4053 -135.2966   33.8752 H   0  0  0  0  0  0  0  0  0  0  0  0
   55.8555 -133.6667   33.3575 H   0  0  0  0  0  0  0  0  0  0  0  0
   56.5410 -131.7327   34.6458 H   0  0  0  0  0  0  0  0  0  0  0  0
   57.8487 -131.8875   35.8676 H   0  0  0  0  0  0  0  0  0  0  0  0
   54.1156 -134.6512   34.6556 H   0  0  0  0  0  0  0  0  0  0  0  0
   55.2715 -135.1093   35.9520 H   0  0  0  0  0  0  0  0  0  0  0  0
   56.3019 -133.1854   37.3054 H   0  0  0  0  0  0  0  0  0  0  0  0
   55.6861 -131.5350   36.9537 H   0  0  0  0  0  0  0  0  0  0  0  0
   60.3816 -132.4094   35.2452 H   0  0  0  0  0  0  0  0  0  0  0  0
   61.9020 -134.8684   35.8842 H   0  0  0  0  0  0  0  0  0  0  0  0
   63.5871 -133.2794   36.7908 H   0  0  0  0  0  0  0  0  0  0  0  0
   62.4453 -131.9170   36.5323 H   0  0  0  0  0  0  0  0  0  0  0  0
   63.1008 -132.8190   35.1240 H   0  0  0  0  0  0  0  0  0  0  0  0
   62.1984 -135.6826   37.8682 H   0  0  0  0  0  0  0  0  0  0  0  0
   60.5909 -134.5314   40.1334 H   0  0  0  0  0  0  0  0  0  0  0  0
   60.9292 -137.0065   40.9996 H   0  0  0  0  0  0  0  0  0  0  0  0
   61.1811 -137.3698   39.2585 H   0  0  0  0  0  0  0  0  0  0  0  0
   59.5067 -136.8551   37.6326 H   0  0  0  0  0  0  0  0  0  0  0  0
   57.0702 -136.6741   37.2536 H   0  0  0  0  0  0  0  0  0  0  0  0
   53.5111 -136.4010   38.1092 H   0  0  0  0  0  0  0  0  0  0  0  0
   54.7977 -137.5990   37.7405 H   0  0  0  0  0  0  0  0  0  0  0  0
   54.9847 -135.8906   37.2178 H   0  0  0  0  0  0  0  0  0  0  0  0
   56.4805 -136.0694   41.4588 H   0  0  0  0  0  0  0  0  0  0  0  0
   58.9082 -136.2440   41.8285 H   0  0  0  0  0  0  0  0  0  0  0  0
   61.5185 -134.9521   42.2200 H   0  0  0  0  0  0  0  0  0  0  0  0
   64.5234 -134.9582   42.2588 H   0  0  0  0  0  0  0  0  0  0  0  0
   64.1830 -135.5809   44.7005 H   0  0  0  0  0  0  0  0  0  0  0  0
   61.9868 -135.0225   44.8333 H   0  0  0  0  0  0  0  0  0  0  0  0
   64.1747 -137.9508   44.4875 H   0  0  0  0  0  0  0  0  0  0  0  0
   65.3140 -138.4999   42.3237 H   0  0  0  0  0  0  0  0  0  0  0  0
   65.9305 -136.9472   42.9838 H   0  0  0  0  0  0  0  0  0  0  0  0
   64.7549 -136.9421   41.6257 H   0  0  0  0  0  0  0  0  0  0  0  0
   62.1977 -137.4196   42.2101 H   0  0  0  0  0  0  0  0  0  0  0  0
   61.9214 -138.3242   43.7372 H   0  0  0  0  0  0  0  0  0  0  0  0
   63.7341 -139.0876   41.6436 H   0  0  0  0  0  0  0  0  0  0  0  0
   63.7805 -133.5842   44.4989 H   0  0  0  0  0  0  0  0  0  0  0  0
   62.3831 -133.1986   43.4380 H   0  0  0  0  0  0  0  0  0  0  0  0
   64.8548 -133.5588   41.0749 H   0  0  0  0  0  0  0  0  0  0  0  0
   66.1123 -131.6556   40.1267 H   0  0  0  0  0  0  0  0  0  0  0  0
   66.1702 -129.4819   41.3059 H   0  0  0  0  0  0  0  0  0  0  0  0
   64.9684 -129.2100   43.4568 H   0  0  0  0  0  0  0  0  0  0  0  0
   63.7210 -131.1127   44.4146 H   0  0  0  0  0  0  0  0  0  0  0  0
  1  2  2  0  0  0  0
  1 10  1  0  0  0  0
  3  1  1  0  0  0  0
  3 43  1  0  0  0  0
  3 44  1  0  0  0  0
  4  3  1  0  0  0  0
  4  7  1  0  0  0  0
  4 45  1  0  0  0  0
  5  9  1  0  0  0  0
  6  4  1  0  0  0  0
  6  8  1  0  0  0  0
  6 46  1  0  0  0  0
  6 47  1  0  0  0  0
  7  9  1  0  0  0  0
  7 48  1  0  0  0  0
  7 49  1  0  0  0  0
  8  5  1  0  0  0  0
  8 50  1  0  0  0  0
  8 51  1  0  0  0  0
  9 52  1  0  0  0  0
  9 53  1  0  0  0  0
 10 11  1  0  0  0  0
 10 54  1  0  0  0  0
 11 12  1  0  0  0  0
 11 14  1  0  0  0  0
 11 55  1  6  0  0  0
 12 13  2  0  0  0  0
 12 15  1  0  0  0  0
 14 56  1  0  0  0  0
 14 57  1  0  0  0  0
 14 58  1  0  0  0  0
 15 16  1  0  0  0  0
 15 59  1  0  0  0  0
 16 17  1  0  0  0  0
 16 26  1  0  0  0  0
 16 60  1  1  0  0  0
 17 18  1  0  0  0  0
 17 61  1  0  0  0  0
 17 62  1  0  0  0  0
 18 19  2  0  0  0  0
 18 25  1  0  0  0  0
 19 20  1  0  0  0  0
 19 63  1  0  0  0  0
 20 21  2  0  0  0  0
 20 64  1  0  0  0  0
 21 22  1  0  0  0  0
 21 24  1  0  0  0  0
 22 23  1  0  0  0  0
 23 65  1  0  0  0  0
 23 66  1  0  0  0  0
 23 67  1  0  0  0  0
 24 25  2  0  0  0  0
 24 68  1  0  0  0  0
 25 69  1  0  0  0  0
 26 27  2  0  0  0  0
 26 28  1  0  0  0  0
 28 29  1  0  0  0  0
 28 70  1  0  0  0  0
 29 30  1  0  0  0  0
 29 36  1  0  0  0  0
 29 71  1  6  0  0  0
 30 31  1  0  0  0  0
 30 32  1  0  0  0  0
 30 72  1  1  0  0  0
 31 73  1  0  0  0  0
 32 33  1  0  0  0  0
 32 34  1  0  0  0  0
 32 74  1  1  0  0  0
 33 75  1  0  0  0  0
 33 76  1  0  0  0  0
 33 77  1  0  0  0  0
 34 35  1  0  0  0  0
 34 78  1  0  0  0  0
 34 79  1  0  0  0  0
 35 80  1  0  0  0  0
 36 37  1  0  0  0  0
 36 81  1  0  0  0  0
 36 82  1  0  0  0  0
 37 38  2  0  0  0  0
 37 42  1  0  0  0  0
 38 39  1  0  0  0  0
 38 83  1  0  0  0  0
 39 40  2  0  0  0  0
 39 84  1  0  0  0  0
 40 41  1  0  0  0  0
 40 85  1  0  0  0  0
 41 42  2  0  0  0  0
 41 86  1  0  0  0  0
 42 87  1  0  0  0  0
M  CHG  1   4   1
M  END
