4qz5_ligand
 OpenBabel08222323353D

 87 89  0  0  1  0  0  0  0  0999 V2000
   60.3510 -134.5050   34.1770 C   0  0  0  0  0  0  0  0  0  0  0  0
   60.3580 -135.7250   34.3520 O   0  0  0  0  0  0  0  0  0  0  0  0
   59.3790 -133.8260   33.2010 C   0  0  0  0  0  0  0  0  0  0  0  0
   58.5440 -134.8510   32.5740 N   0  3  0  0  0  0  0  0  0  0  0  0
   56.0130 -135.3630   31.5240 O   0  0  0  0  0  0  0  0  0  0  0  0
   58.2220 -134.3930   31.1900 C   0  0  0  0  0  0  0  0  0  0  0  0
   57.3360 -135.0770   33.4080 C   0  0  0  0  0  0  0  0  0  0  0  0
   57.1350 -135.2460   30.6050 C   0  0  0  0  0  0  0  0  0  0  0  0
   56.4310 -136.0420   32.7360 C   0  0  0  0  0  0  0  0  0  0  0  0
   61.1810 -133.6410   34.7820 N   0  0  0  0  0  0  0  0  0  0  0  0
   62.1900 -134.0770   35.7610 C   0  0  2  0  0  0  0  0  0  0  0  0
   61.5510 -134.1880   37.1540 C   0  0  0  0  0  0  0  0  0  0  0  0
   60.5740 -133.5030   37.4750 O   0  0  0  0  0  0  0  0  0  0  0  0
   63.3380 -133.0630   35.8180 C   0  0  0  0  0  0  0  0  0  0  0  0
   62.1390 -135.0970   37.9490 N   0  0  0  0  0  0  0  0  0  0  0  0
   61.7000 -135.3560   39.3290 C   0  0  1  0  0  0  0  0  0  0  0  0
   61.0960 -136.7400   39.4490 C   0  0  0  0  0  0  0  0  0  0  0  0
   59.6930 -136.6500   39.3770 C   0  0  0  0  0  0  0  0  0  0  0  0
   59.0690 -136.1460   38.2330 C   0  0  0  0  0  0  0  0  0  0  0  0
   57.6820 -136.0700   38.1500 C   0  0  0  0  0  0  0  0  0  0  0  0
   56.8950 -136.5100   39.2110 C   0  0  0  0  0  0  0  0  0  0  0  0
   55.5330 -136.4380   39.1190 O   0  0  0  0  0  0  0  0  0  0  0  0
   55.0010 -135.3380   39.8680 C   0  0  0  0  0  0  0  0  0  0  0  0
   57.5080 -137.0260   40.3570 C   0  0  0  0  0  0  0  0  0  0  0  0
   58.8980 -137.1000   40.4400 C   0  0  0  0  0  0  0  0  0  0  0  0
   62.9600 -135.3170   40.1920 C   0  0  0  0  0  0  0  0  0  0  0  0
   64.0730 -135.5050   39.6900 O   0  0  0  0  0  0  0  0  0  0  0  0
   62.7380 -135.1000   41.5000 N   0  0  0  0  0  0  0  0  0  0  0  0
   63.8500 -135.0230   42.4600 C   0  0  2  0  0  0  0  0  0  0  0  0
   63.7430 -136.1230   43.5500 C   0  0  1  0  0  0  0  0  0  0  0  0
   62.3880 -136.1210   44.0700 O   0  0  0  0  0  0  0  0  0  0  0  0
   64.1520 -137.6260   43.1170 C   0  0  2  0  0  0  0  0  0  0  0  0
   65.2950 -137.6280   42.0260 C   0  0  0  0  0  0  0  0  0  0  0  0
   62.9270 -138.2710   42.4510 C   0  0  0  0  0  0  0  0  0  0  0  0
   63.2840 -139.6070   42.0360 O   0  0  0  0  0  0  0  0  0  0  0  0
   63.8170 -133.6600   43.1540 C   0  0  0  0  0  0  0  0  0  0  0  0
   64.4950 -132.6480   42.4250 C   0  0  0  0  0  0  0  0  0  0  0  0
   65.3550 -132.8780   41.3350 C   0  0  0  0  0  0  0  0  0  0  0  0
   65.9740 -131.8090   40.6830 C   0  0  0  0  0  0  0  0  0  0  0  0
   65.7570 -130.4970   41.1050 C   0  0  0  0  0  0  0  0  0  0  0  0
   64.9090 -130.2530   42.1860 C   0  0  0  0  0  0  0  0  0  0  0  0
   64.2880 -131.3230   42.8350 C   0  0  0  0  0  0  0  0  0  0  0  0
   59.9474 -133.2888   32.4275 H   0  0  0  0  0  0  0  0  0  0  0  0
   58.7425 -133.1152   33.7483 H   0  0  0  0  0  0  0  0  0  0  0  0
   59.0586 -135.7159   32.5173 H   0  0  0  0  0  0  0  0  0  0  0  0
   59.1222 -134.4698   30.5626 H   0  0  0  0  0  0  0  0  0  0  0  0
   57.8856 -133.3462   31.2221 H   0  0  0  0  0  0  0  0  0  0  0  0
   56.8088 -134.1225   33.5524 H   0  0  0  0  0  0  0  0  0  0  0  0
   57.6381 -135.4806   34.3857 H   0  0  0  0  0  0  0  0  0  0  0  0
   56.7857 -134.7902   29.6668 H   0  0  0  0  0  0  0  0  0  0  0  0
   57.5367 -136.2489   30.3981 H   0  0  0  0  0  0  0  0  0  0  0  0
   56.9647 -136.9733   32.4958 H   0  0  0  0  0  0  0  0  0  0  0  0
   55.5637 -136.2702   33.3729 H   0  0  0  0  0  0  0  0  0  0  0  0
   61.1116 -132.6684   34.5602 H   0  0  0  0  0  0  0  0  0  0  0  0
   62.5850 -135.0587   35.4608 H   0  0  0  0  0  0  0  0  0  0  0  0
   64.0863 -133.3972   36.5517 H   0  0  0  0  0  0  0  0  0  0  0  0
   62.9447 -132.0803   36.1172 H   0  0  0  0  0  0  0  0  0  0  0  0
   63.8069 -132.9838   34.8261 H   0  0  0  0  0  0  0  0  0  0  0  0
   62.9097 -135.6212   37.5866 H   0  0  0  0  0  0  0  0  0  0  0  0
   60.9743 -134.5953   39.6525 H   0  0  0  0  0  0  0  0  0  0  0  0
   61.3855 -137.1836   40.4130 H   0  0  0  0  0  0  0  0  0  0  0  0
   61.4649 -137.3730   38.6285 H   0  0  0  0  0  0  0  0  0  0  0  0
   59.6737 -135.8095   37.3986 H   0  0  0  0  0  0  0  0  0  0  0  0
   57.2139 -135.6680   37.2587 H   0  0  0  0  0  0  0  0  0  0  0  0
   53.9060 -135.3198   39.7650 H   0  0  0  0  0  0  0  0  0  0  0  0
   55.4210 -134.3963   39.4849 H   0  0  0  0  0  0  0  0  0  0  0  0
   55.2676 -135.4537   40.9289 H   0  0  0  0  0  0  0  0  0  0  0  0
   56.8994 -137.3703   41.1853 H   0  0  0  0  0  0  0  0  0  0  0  0
   59.3652 -137.5069   41.3295 H   0  0  0  0  0  0  0  0  0  0  0  0
   61.7994 -134.9888   41.8265 H   0  0  0  0  0  0  0  0  0  0  0  0
   64.8002 -135.1412   41.9185 H   0  0  0  0  0  0  0  0  0  0  0  0
   64.4256 -135.8333   44.3625 H   0  0  0  0  0  0  0  0  0  0  0  0
   62.3059 -136.7900   44.7395 H   0  0  0  0  0  0  0  0  0  0  0  0
   64.4684 -138.1983   44.0015 H   0  0  0  0  0  0  0  0  0  0  0  0
   65.5446 -138.6653   41.7584 H   0  0  0  0  0  0  0  0  0  0  0  0
   66.1881 -137.1285   42.4296 H   0  0  0  0  0  0  0  0  0  0  0  0
   64.9481 -137.0917   41.1305 H   0  0  0  0  0  0  0  0  0  0  0  0
   62.6253 -137.6782   41.5749 H   0  0  0  0  0  0  0  0  0  0  0  0
   62.0943 -138.3150   43.1684 H   0  0  0  0  0  0  0  0  0  0  0  0
   64.0049 -139.5636   41.4187 H   0  0  0  0  0  0  0  0  0  0  0  0
   64.2919 -133.7581   44.1413 H   0  0  0  0  0  0  0  0  0  0  0  0
   62.7672 -133.3567   43.2805 H   0  0  0  0  0  0  0  0  0  0  0  0
   65.5384 -133.8922   40.9990 H   0  0  0  0  0  0  0  0  0  0  0  0
   66.6293 -132.0006   39.8410 H   0  0  0  0  0  0  0  0  0  0  0  0
   66.2439 -129.6727   40.5965 H   0  0  0  0  0  0  0  0  0  0  0  0
   64.7328 -129.2372   42.5209 H   0  0  0  0  0  0  0  0  0  0  0  0
   63.6314 -131.1246   43.6744 H   0  0  0  0  0  0  0  0  0  0  0  0
  1  2  2  0  0  0  0
  1 10  1  0  0  0  0
  3  1  1  0  0  0  0
  3 43  1  0  0  0  0
  3 44  1  0  0  0  0
  4  3  1  0  0  0  0
  4  7  1  0  0  0  0
  4 45  1  0  0  0  0
  5  9  1  0  0  0  0
  6  4  1  0  0  0  0
  6  8  1  0  0  0  0
  6 46  1  0  0  0  0
  6 47  1  0  0  0  0
  7  9  1  0  0  0  0
  7 48  1  0  0  0  0
  7 49  1  0  0  0  0
  8  5  1  0  0  0  0
  8 50  1  0  0  0  0
  8 51  1  0  0  0  0
  9 52  1  0  0  0  0
  9 53  1  0  0  0  0
 10 11  1  0  0  0  0
 10 54  1  0  0  0  0
 11 12  1  0  0  0  0
 11 14  1  0  0  0  0
 11 55  1  6  0  0  0
 12 13  2  0  0  0  0
 12 15  1  0  0  0  0
 14 56  1  0  0  0  0
 14 57  1  0  0  0  0
 14 58  1  0  0  0  0
 15 16  1  0  0  0  0
 15 59  1  0  0  0  0
 16 17  1  0  0  0  0
 16 26  1  0  0  0  0
 16 60  1  1  0  0  0
 17 18  1  0  0  0  0
 17 61  1  0  0  0  0
 17 62  1  0  0  0  0
 18 19  2  0  0  0  0
 18 25  1  0  0  0  0
 19 20  1  0  0  0  0
 19 63  1  0  0  0  0
 20 21  2  0  0  0  0
 20 64  1  0  0  0  0
 21 22  1  0  0  0  0
 21 24  1  0  0  0  0
 22 23  1  0  0  0  0
 23 65  1  0  0  0  0
 23 66  1  0  0  0  0
 23 67  1  0  0  0  0
 24 25  2  0  0  0  0
 24 68  1  0  0  0  0
 25 69  1  0  0  0  0
 26 27  2  0  0  0  0
 26 28  1  0  0  0  0
 28 29  1  0  0  0  0
 28 70  1  0  0  0  0
 29 30  1  0  0  0  0
 29 36  1  0  0  0  0
 29 71  1  6  0  0  0
 30 31  1  0  0  0  0
 30 32  1  0  0  0  0
 30 72  1  1  0  0  0
 31 73  1  0  0  0  0
 32 33  1  0  0  0  0
 32 34  1  0  0  0  0
 32 74  1  1  0  0  0
 33 75  1  0  0  0  0
 33 76  1  0  0  0  0
 33 77  1  0  0  0  0
 34 35  1  0  0  0  0
 34 78  1  0  0  0  0
 34 79  1  0  0  0  0
 35 80  1  0  0  0  0
 36 37  1  0  0  0  0
 36 81  1  0  0  0  0
 36 82  1  0  0  0  0
 37 38  2  0  0  0  0
 37 42  1  0  0  0  0
 38 39  1  0  0  0  0
 38 83  1  0  0  0  0
 39 40  2  0  0  0  0
 39 84  1  0  0  0  0
 40 41  1  0  0  0  0
 40 85  1  0  0  0  0
 41 42  2  0  0  0  0
 41 86  1  0  0  0  0
 42 87  1  0  0  0  0
M  CHG  1   4   1
M  END
