4qzw_ligand
 OpenBabel08222323353D

 87 89  0  0  1  0  0  0  0  0999 V2000
   59.7090 -134.7930   34.3910 C   0  0  0  0  0  0  0  0  0  0  0  0
   59.6730 -136.0070   34.5880 O   0  0  0  0  0  0  0  0  0  0  0  0
   58.6260 -134.1050   33.5520 C   0  0  0  0  0  0  0  0  0  0  0  0
   57.3610 -134.4090   34.2170 N   0  3  0  0  0  0  0  0  0  0  0  0
   54.8960 -133.4690   35.0860 O   0  0  0  0  0  0  0  0  0  0  0  0
   56.2590 -134.1960   33.2440 C   0  0  0  0  0  0  0  0  0  0  0  0
   57.1990 -133.5400   35.4040 C   0  0  0  0  0  0  0  0  0  0  0  0
   54.9530 -134.3370   33.9450 C   0  0  0  0  0  0  0  0  0  0  0  0
   55.8950 -133.7920   36.0780 C   0  0  0  0  0  0  0  0  0  0  0  0
   60.6470 -133.9710   34.8840 N   0  0  0  0  0  0  0  0  0  0  0  0
   61.7360 -134.4660   35.7300 C   0  0  2  0  0  0  0  0  0  0  0  0
   61.2130 -134.5940   37.1580 C   0  0  0  0  0  0  0  0  0  0  0  0
   60.3610 -133.8180   37.5910 O   0  0  0  0  0  0  0  0  0  0  0  0
   62.9080 -133.4770   35.7100 C   0  0  0  0  0  0  0  0  0  0  0  0
   61.7530 -135.5960   37.8610 N   0  0  0  0  0  0  0  0  0  0  0  0
   61.3910 -135.8290   39.2610 C   0  0  1  0  0  0  0  0  0  0  0  0
   60.8120 -137.1970   39.4640 C   0  0  0  0  0  0  0  0  0  0  0  0
   59.4580 -137.1380   39.1360 C   0  0  0  0  0  0  0  0  0  0  0  0
   59.0480 -137.4090   37.8340 C   0  0  0  0  0  0  0  0  0  0  0  0
   57.6980 -137.3660   37.5020 C   0  0  0  0  0  0  0  0  0  0  0  0
   56.7360 -137.0540   38.4590 C   0  0  0  0  0  0  0  0  0  0  0  0
   55.4300 -137.0440   38.0380 O   0  0  0  0  0  0  0  0  0  0  0  0
   54.4010 -136.4550   38.8520 C   0  0  0  0  0  0  0  0  0  0  0  0
   57.1510 -136.7900   39.7710 C   0  0  0  0  0  0  0  0  0  0  0  0
   58.5020 -136.8330   40.1050 C   0  0  0  0  0  0  0  0  0  0  0  0
   62.6700 -135.7500   40.0880 C   0  0  0  0  0  0  0  0  0  0  0  0
   63.7830 -135.8030   39.5600 O   0  0  0  0  0  0  0  0  0  0  0  0
   62.4410 -135.6510   41.3980 N   0  0  0  0  0  0  0  0  0  0  0  0
   63.4940 -135.5330   42.3960 C   0  0  2  0  0  0  0  0  0  0  0  0
   63.3020 -136.6120   43.4870 C   0  0  1  0  0  0  0  0  0  0  0  0
   61.9230 -136.6050   43.9140 O   0  0  0  0  0  0  0  0  0  0  0  0
   63.7110 -138.1280   43.1320 C   0  0  2  0  0  0  0  0  0  0  0  0
   64.7430 -138.1790   41.9450 C   0  0  0  0  0  0  0  0  0  0  0  0
   62.4250 -138.8540   42.6970 C   0  0  0  0  0  0  0  0  0  0  0  0
   62.8100 -139.8560   41.7400 O   0  0  0  0  0  0  0  0  0  0  0  0
   63.3220 -134.1790   43.0690 C   0  0  0  0  0  0  0  0  0  0  0  0
   64.0180 -133.1130   42.4490 C   0  0  0  0  0  0  0  0  0  0  0  0
   64.7550 -133.1940   41.2580 C   0  0  0  0  0  0  0  0  0  0  0  0
   65.3860 -132.0620   40.7370 C   0  0  0  0  0  0  0  0  0  0  0  0
   65.2900 -130.8310   41.3830 C   0  0  0  0  0  0  0  0  0  0  0  0
   64.5570 -130.7300   42.5600 C   0  0  0  0  0  0  0  0  0  0  0  0
   63.9310 -131.8650   43.0780 C   0  0  0  0  0  0  0  0  0  0  0  0
   58.6254 -134.5017   32.5260 H   0  0  0  0  0  0  0  0  0  0  0  0
   58.7939 -133.0182   33.5249 H   0  0  0  0  0  0  0  0  0  0  0  0
   57.3600 -135.3722   34.5140 H   0  0  0  0  0  0  0  0  0  0  0  0
   56.3279 -134.9441   32.4405 H   0  0  0  0  0  0  0  0  0  0  0  0
   56.3383 -133.1869   32.8134 H   0  0  0  0  0  0  0  0  0  0  0  0
   57.2424 -132.4874   35.0875 H   0  0  0  0  0  0  0  0  0  0  0  0
   58.0152 -133.7438   36.1127 H   0  0  0  0  0  0  0  0  0  0  0  0
   54.1403 -134.0759   33.2512 H   0  0  0  0  0  0  0  0  0  0  0  0
   54.8315 -135.3787   34.2768 H   0  0  0  0  0  0  0  0  0  0  0  0
   55.8132 -134.8463   36.3808 H   0  0  0  0  0  0  0  0  0  0  0  0
   55.7853 -133.1469   36.9622 H   0  0  0  0  0  0  0  0  0  0  0  0
   60.6020 -132.9955   34.6687 H   0  0  0  0  0  0  0  0  0  0  0  0
   62.0746 -135.4468   35.3649 H   0  0  0  0  0  0  0  0  0  0  0  0
   63.7197 -133.8574   36.3476 H   0  0  0  0  0  0  0  0  0  0  0  0
   62.5708 -132.5010   36.0891 H   0  0  0  0  0  0  0  0  0  0  0  0
   63.2743 -133.3633   34.6790 H   0  0  0  0  0  0  0  0  0  0  0  0
   62.4184 -136.1991   37.4210 H   0  0  0  0  0  0  0  0  0  0  0  0
   60.6694 -135.0666   39.5898 H   0  0  0  0  0  0  0  0  0  0  0  0
   60.9299 -137.5015   40.5144 H   0  0  0  0  0  0  0  0  0  0  0  0
   61.3239 -137.9208   38.8127 H   0  0  0  0  0  0  0  0  0  0  0  0
   59.7832 -137.6544   37.0761 H   0  0  0  0  0  0  0  0  0  0  0  0
   57.3907 -137.5783   36.4844 H   0  0  0  0  0  0  0  0  0  0  0  0
   53.4312 -136.5481   38.3412 H   0  0  0  0  0  0  0  0  0  0  0  0
   54.6278 -135.3914   39.0170 H   0  0  0  0  0  0  0  0  0  0  0  0
   54.3568 -136.9750   39.8203 H   0  0  0  0  0  0  0  0  0  0  0  0
   56.4157 -136.5508   40.5307 H   0  0  0  0  0  0  0  0  0  0  0  0
   58.8125 -136.6284   41.1232 H   0  0  0  0  0  0  0  0  0  0  0  0
   61.4918 -135.6582   41.7126 H   0  0  0  0  0  0  0  0  0  0  0  0
   64.4858 -135.6234   41.9289 H   0  0  0  0  0  0  0  0  0  0  0  0
   63.9302 -136.3092   44.3377 H   0  0  0  0  0  0  0  0  0  0  0  0
   61.7059 -135.7496   44.2658 H   0  0  0  0  0  0  0  0  0  0  0  0
   64.1448 -138.6148   44.0179 H   0  0  0  0  0  0  0  0  0  0  0  0
   65.0009 -139.2261   41.7282 H   0  0  0  0  0  0  0  0  0  0  0  0
   65.6526 -137.6280   42.2260 H   0  0  0  0  0  0  0  0  0  0  0  0
   64.2968 -137.7187   41.0511 H   0  0  0  0  0  0  0  0  0  0  0  0
   61.7260 -138.1405   42.2361 H   0  0  0  0  0  0  0  0  0  0  0  0
   61.9458 -139.3270   43.5668 H   0  0  0  0  0  0  0  0  0  0  0  0
   63.2278 -139.4380   40.9962 H   0  0  0  0  0  0  0  0  0  0  0  0
   63.6806 -134.2644   44.1054 H   0  0  0  0  0  0  0  0  0  0  0  0
   62.2501 -133.9320   43.0710 H   0  0  0  0  0  0  0  0  0  0  0  0
   64.8353 -134.1419   40.7383 H   0  0  0  0  0  0  0  0  0  0  0  0
   65.9572 -132.1420   39.8192 H   0  0  0  0  0  0  0  0  0  0  0  0
   65.7834 -129.9583   40.9707 H   0  0  0  0  0  0  0  0  0  0  0  0
   64.4723 -129.7778   43.0712 H   0  0  0  0  0  0  0  0  0  0  0  0
   63.3600 -131.7776   43.9953 H   0  0  0  0  0  0  0  0  0  0  0  0
  1  2  2  0  0  0  0
  1 10  1  0  0  0  0
  3  1  1  0  0  0  0
  3 43  1  0  0  0  0
  3 44  1  0  0  0  0
  4  3  1  0  0  0  0
  4  7  1  0  0  0  0
  4 45  1  0  0  0  0
  5  9  1  0  0  0  0
  6  4  1  0  0  0  0
  6  8  1  0  0  0  0
  6 46  1  0  0  0  0
  6 47  1  0  0  0  0
  7  9  1  0  0  0  0
  7 48  1  0  0  0  0
  7 49  1  0  0  0  0
  8  5  1  0  0  0  0
  8 50  1  0  0  0  0
  8 51  1  0  0  0  0
  9 52  1  0  0  0  0
  9 53  1  0  0  0  0
 10 11  1  0  0  0  0
 10 54  1  0  0  0  0
 11 12  1  0  0  0  0
 11 14  1  0  0  0  0
 11 55  1  6  0  0  0
 12 13  2  0  0  0  0
 12 15  1  0  0  0  0
 14 56  1  0  0  0  0
 14 57  1  0  0  0  0
 14 58  1  0  0  0  0
 15 16  1  0  0  0  0
 15 59  1  0  0  0  0
 16 17  1  0  0  0  0
 16 26  1  0  0  0  0
 16 60  1  1  0  0  0
 17 18  1  0  0  0  0
 17 61  1  0  0  0  0
 17 62  1  0  0  0  0
 18 19  2  0  0  0  0
 18 25  1  0  0  0  0
 19 20  1  0  0  0  0
 19 63  1  0  0  0  0
 20 21  2  0  0  0  0
 20 64  1  0  0  0  0
 21 22  1  0  0  0  0
 21 24  1  0  0  0  0
 22 23  1  0  0  0  0
 23 65  1  0  0  0  0
 23 66  1  0  0  0  0
 23 67  1  0  0  0  0
 24 25  2  0  0  0  0
 24 68  1  0  0  0  0
 25 69  1  0  0  0  0
 26 27  2  0  0  0  0
 26 28  1  0  0  0  0
 28 29  1  0  0  0  0
 28 70  1  0  0  0  0
 29 30  1  0  0  0  0
 29 36  1  0  0  0  0
 29 71  1  6  0  0  0
 30 31  1  0  0  0  0
 30 32  1  0  0  0  0
 30 72  1  1  0  0  0
 31 73  1  0  0  0  0
 32 33  1  0  0  0  0
 32 34  1  0  0  0  0
 32 74  1  1  0  0  0
 33 75  1  0  0  0  0
 33 76  1  0  0  0  0
 33 77  1  0  0  0  0
 34 35  1  0  0  0  0
 34 78  1  0  0  0  0
 34 79  1  0  0  0  0
 35 80  1  0  0  0  0
 36 37  1  0  0  0  0
 36 81  1  0  0  0  0
 36 82  1  0  0  0  0
 37 38  2  0  0  0  0
 37 42  1  0  0  0  0
 38 39  1  0  0  0  0
 38 83  1  0  0  0  0
 39 40  2  0  0  0  0
 39 84  1  0  0  0  0
 40 41  1  0  0  0  0
 40 85  1  0  0  0  0
 41 42  2  0  0  0  0
 41 86  1  0  0  0  0
 42 87  1  0  0  0  0
M  CHG  1   4   1
M  END
