4qzx_ligand
 OpenBabel08222323353D

 87 89  0  0  1  0  0  0  0  0999 V2000
   59.5820 -134.9140   34.4390 C   0  0  0  0  0  0  0  0  0  0  0  0
   59.6800 -136.1340   34.5740 O   0  0  0  0  0  0  0  0  0  0  0  0
   58.3910 -134.3050   33.6790 C   0  0  0  0  0  0  0  0  0  0  0  0
   57.3170 -134.2230   34.6660 N   0  3  0  0  0  0  0  0  0  0  0  0
   54.6650 -133.7960   35.3570 O   0  0  0  0  0  0  0  0  0  0  0  0
   56.3460 -135.3260   34.4830 C   0  0  0  0  0  0  0  0  0  0  0  0
   56.6680 -132.9070   34.6260 C   0  0  0  0  0  0  0  0  0  0  0  0
   55.2080 -135.1390   35.4150 C   0  0  0  0  0  0  0  0  0  0  0  0
   55.6490 -132.8070   35.6980 C   0  0  0  0  0  0  0  0  0  0  0  0
   60.4640 -134.0290   34.9370 N   0  0  0  0  0  0  0  0  0  0  0  0
   61.6390 -134.4610   35.7080 C   0  0  2  0  0  0  0  0  0  0  0  0
   61.2350 -134.5730   37.1790 C   0  0  0  0  0  0  0  0  0  0  0  0
   60.4580 -133.7630   37.6850 O   0  0  0  0  0  0  0  0  0  0  0  0
   62.7790 -133.4510   35.5480 C   0  0  0  0  0  0  0  0  0  0  0  0
   61.7770 -135.6100   37.8320 N   0  0  0  0  0  0  0  0  0  0  0  0
   61.4850 -135.8690   39.2460 C   0  0  1  0  0  0  0  0  0  0  0  0
   60.8920 -137.2430   39.3890 C   0  0  0  0  0  0  0  0  0  0  0  0
   59.5210 -137.1360   39.1320 C   0  0  0  0  0  0  0  0  0  0  0  0
   59.0050 -137.3870   37.8610 C   0  0  0  0  0  0  0  0  0  0  0  0
   57.6370 -137.2860   37.6210 C   0  0  0  0  0  0  0  0  0  0  0  0
   56.7640 -136.9450   38.6570 C   0  0  0  0  0  0  0  0  0  0  0  0
   55.4100 -136.8230   38.4830 O   0  0  0  0  0  0  0  0  0  0  0  0
   54.7610 -137.8010   37.6480 C   0  0  0  0  0  0  0  0  0  0  0  0
   57.2850 -136.6950   39.9230 C   0  0  0  0  0  0  0  0  0  0  0  0
   58.6500 -136.7950   40.1640 C   0  0  0  0  0  0  0  0  0  0  0  0
   62.7870 -135.8240   40.0500 C   0  0  0  0  0  0  0  0  0  0  0  0
   63.8770 -136.0470   39.5210 O   0  0  0  0  0  0  0  0  0  0  0  0
   62.6110 -135.5480   41.3510 N   0  0  0  0  0  0  0  0  0  0  0  0
   63.7180 -135.4560   42.3060 C   0  0  2  0  0  0  0  0  0  0  0  0
   63.5530 -136.5050   43.4340 C   0  0  1  0  0  0  0  0  0  0  0  0
   62.2430 -136.3820   43.9620 O   0  0  0  0  0  0  0  0  0  0  0  0
   63.8380 -138.0310   43.0790 C   0  0  2  0  0  0  0  0  0  0  0  0
   64.8970 -138.1540   41.9220 C   0  0  0  0  0  0  0  0  0  0  0  0
   62.5230 -138.6230   42.5670 C   0  0  0  0  0  0  0  0  0  0  0  0
   62.8330 -139.7920   41.7730 O   0  0  0  0  0  0  0  0  0  0  0  0
   63.6630 -134.0930   42.9770 C   0  0  0  0  0  0  0  0  0  0  0  0
   64.3550 -133.0700   42.2900 C   0  0  0  0  0  0  0  0  0  0  0  0
   65.1580 -133.2430   41.1500 C   0  0  0  0  0  0  0  0  0  0  0  0
   65.7880 -132.1450   40.5640 C   0  0  0  0  0  0  0  0  0  0  0  0
   65.6310 -130.8690   41.1000 C   0  0  0  0  0  0  0  0  0  0  0  0
   64.8370 -130.6860   42.2270 C   0  0  0  0  0  0  0  0  0  0  0  0
   64.2100 -131.7830   42.8100 C   0  0  0  0  0  0  0  0  0  0  0  0
   58.0963 -134.9516   32.8394 H   0  0  0  0  0  0  0  0  0  0  0  0
   58.6450 -133.3043   33.2996 H   0  0  0  0  0  0  0  0  0  0  0  0
   57.7300 -134.3303   35.5792 H   0  0  0  0  0  0  0  0  0  0  0  0
   56.8382 -136.2871   34.6928 H   0  0  0  0  0  0  0  0  0  0  0  0
   55.9765 -135.3218   33.4469 H   0  0  0  0  0  0  0  0  0  0  0  0
   56.1820 -132.7709   33.6487 H   0  0  0  0  0  0  0  0  0  0  0  0
   57.4261 -132.1232   34.7709 H   0  0  0  0  0  0  0  0  0  0  0  0
   54.4141 -135.8534   35.1518 H   0  0  0  0  0  0  0  0  0  0  0  0
   55.5541 -135.3368   36.4402 H   0  0  0  0  0  0  0  0  0  0  0  0
   56.0953 -133.0256   36.6793 H   0  0  0  0  0  0  0  0  0  0  0  0
   55.2005 -131.8028   35.7147 H   0  0  0  0  0  0  0  0  0  0  0  0
   60.3169 -133.0526   34.7789 H   0  0  0  0  0  0  0  0  0  0  0  0
   61.9750 -135.4432   35.3443 H   0  0  0  0  0  0  0  0  0  0  0  0
   63.6504 -133.7865   36.1294 H   0  0  0  0  0  0  0  0  0  0  0  0
   62.4510 -132.4669   35.9139 H   0  0  0  0  0  0  0  0  0  0  0  0
   63.0545 -133.3742   34.4858 H   0  0  0  0  0  0  0  0  0  0  0  0
   62.3968 -136.2234   37.3425 H   0  0  0  0  0  0  0  0  0  0  0  0
   60.7814 -135.1135   39.6257 H   0  0  0  0  0  0  0  0  0  0  0  0
   61.0549 -137.6184   40.4101 H   0  0  0  0  0  0  0  0  0  0  0  0
   61.3572 -137.9303   38.6671 H   0  0  0  0  0  0  0  0  0  0  0  0
   59.6738 -137.6628   37.0537 H   0  0  0  0  0  0  0  0  0  0  0  0
   57.2480 -137.4727   36.6266 H   0  0  0  0  0  0  0  0  0  0  0  0
   53.6840 -137.5830   37.5973 H   0  0  0  0  0  0  0  0  0  0  0  0
   54.9124 -138.8043   38.0728 H   0  0  0  0  0  0  0  0  0  0  0  0
   55.1909 -137.7625   36.6362 H   0  0  0  0  0  0  0  0  0  0  0  0
   56.6177 -136.4188   40.7314 H   0  0  0  0  0  0  0  0  0  0  0  0
   59.0381 -136.6070   41.1585 H   0  0  0  0  0  0  0  0  0  0  0  0
   61.6803 -135.3980   41.6846 H   0  0  0  0  0  0  0  0  0  0  0  0
   64.6769 -135.5985   41.7861 H   0  0  0  0  0  0  0  0  0  0  0  0
   64.2696 -136.2323   44.2227 H   0  0  0  0  0  0  0  0  0  0  0  0
   62.1237 -135.5058   44.3092 H   0  0  0  0  0  0  0  0  0  0  0  0
   64.1896 -138.5693   43.9715 H   0  0  0  0  0  0  0  0  0  0  0  0
   65.0739 -139.2164   41.6983 H   0  0  0  0  0  0  0  0  0  0  0  0
   65.8402 -137.6836   42.2367 H   0  0  0  0  0  0  0  0  0  0  0  0
   64.5173 -137.6481   41.0221 H   0  0  0  0  0  0  0  0  0  0  0  0
   61.9966 -137.8814   41.9482 H   0  0  0  0  0  0  0  0  0  0  0  0
   61.8869 -138.9086   43.4177 H   0  0  0  0  0  0  0  0  0  0  0  0
   63.3848 -139.5397   41.0420 H   0  0  0  0  0  0  0  0  0  0  0  0
   64.1001 -134.1875   43.9820 H   0  0  0  0  0  0  0  0  0  0  0  0
   62.6076 -133.7952   43.0627 H   0  0  0  0  0  0  0  0  0  0  0  0
   65.2882 -134.2317   40.7250 H   0  0  0  0  0  0  0  0  0  0  0  0
   66.4050 -132.2860   39.6840 H   0  0  0  0  0  0  0  0  0  0  0  0
   66.1261 -130.0214   40.6402 H   0  0  0  0  0  0  0  0  0  0  0  0
   64.7074 -129.6957   42.6484 H   0  0  0  0  0  0  0  0  0  0  0  0
   63.5940 -131.6343   43.6895 H   0  0  0  0  0  0  0  0  0  0  0  0
  1  2  2  0  0  0  0
  1 10  1  0  0  0  0
  3  1  1  0  0  0  0
  3 43  1  0  0  0  0
  3 44  1  0  0  0  0
  4  3  1  0  0  0  0
  4  7  1  0  0  0  0
  4 45  1  0  0  0  0
  5  9  1  0  0  0  0
  6  4  1  0  0  0  0
  6  8  1  0  0  0  0
  6 46  1  0  0  0  0
  6 47  1  0  0  0  0
  7  9  1  0  0  0  0
  7 48  1  0  0  0  0
  7 49  1  0  0  0  0
  8  5  1  0  0  0  0
  8 50  1  0  0  0  0
  8 51  1  0  0  0  0
  9 52  1  0  0  0  0
  9 53  1  0  0  0  0
 10 11  1  0  0  0  0
 10 54  1  0  0  0  0
 11 12  1  0  0  0  0
 11 14  1  0  0  0  0
 11 55  1  6  0  0  0
 12 13  2  0  0  0  0
 12 15  1  0  0  0  0
 14 56  1  0  0  0  0
 14 57  1  0  0  0  0
 14 58  1  0  0  0  0
 15 16  1  0  0  0  0
 15 59  1  0  0  0  0
 16 17  1  0  0  0  0
 16 26  1  0  0  0  0
 16 60  1  1  0  0  0
 17 18  1  0  0  0  0
 17 61  1  0  0  0  0
 17 62  1  0  0  0  0
 18 19  2  0  0  0  0
 18 25  1  0  0  0  0
 19 20  1  0  0  0  0
 19 63  1  0  0  0  0
 20 21  2  0  0  0  0
 20 64  1  0  0  0  0
 21 22  1  0  0  0  0
 21 24  1  0  0  0  0
 22 23  1  0  0  0  0
 23 65  1  0  0  0  0
 23 66  1  0  0  0  0
 23 67  1  0  0  0  0
 24 25  2  0  0  0  0
 24 68  1  0  0  0  0
 25 69  1  0  0  0  0
 26 27  2  0  0  0  0
 26 28  1  0  0  0  0
 28 29  1  0  0  0  0
 28 70  1  0  0  0  0
 29 30  1  0  0  0  0
 29 36  1  0  0  0  0
 29 71  1  6  0  0  0
 30 31  1  0  0  0  0
 30 32  1  0  0  0  0
 30 72  1  1  0  0  0
 31 73  1  0  0  0  0
 32 33  1  0  0  0  0
 32 34  1  0  0  0  0
 32 74  1  1  0  0  0
 33 75  1  0  0  0  0
 33 76  1  0  0  0  0
 33 77  1  0  0  0  0
 34 35  1  0  0  0  0
 34 78  1  0  0  0  0
 34 79  1  0  0  0  0
 35 80  1  0  0  0  0
 36 37  1  0  0  0  0
 36 81  1  0  0  0  0
 36 82  1  0  0  0  0
 37 38  2  0  0  0  0
 37 42  1  0  0  0  0
 38 39  1  0  0  0  0
 38 83  1  0  0  0  0
 39 40  2  0  0  0  0
 39 84  1  0  0  0  0
 40 41  1  0  0  0  0
 40 85  1  0  0  0  0
 41 42  2  0  0  0  0
 41 86  1  0  0  0  0
 42 87  1  0  0  0  0
M  CHG  1   4   1
M  END
