4r17_ligand
 OpenBabel08222323353D

 14 14  0  0  1  0  0  0  0  0999 V2000
   11.1290 -140.4130    9.9970 C   0  0  1  0  0  0  0  0  0  0  0  0
   12.3950 -139.7770   10.2820 C   0  0  0  0  0  0  0  0  0  0  0  0
   12.3640 -141.0120    7.3940 O   0  0  0  0  0  0  0  0  0  0  0  0
   11.2240 -140.5690    7.5390 C   0  0  0  0  0  0  0  0  0  0  0  0
   10.4410 -140.8060    8.8470 C   0  0  1  0  0  0  0  0  0  0  0  0
   10.9430 -141.7960    9.7440 N   0  3  0  0  0  0  0  0  0  0  0  0
   10.4659 -139.9749   10.7575 H   0  0  0  0  0  0  0  0  0  0  0  0
   12.5133 -139.6670   11.3701 H   0  0  0  0  0  0  0  0  0  0  0  0
   12.4217 -138.7847    9.8082 H   0  0  0  0  0  0  0  0  0  0  0  0
   13.2136 -140.3952    9.8848 H   0  0  0  0  0  0  0  0  0  0  0  0
   10.7620 -140.0018    6.7323 H   0  0  0  0  0  0  0  0  0  0  0  0
    9.3609 -140.6433    8.7172 H   0  0  0  0  0  0  0  0  0  0  0  0
   10.3077 -142.3344   10.3120 H   0  0  0  0  0  0  0  0  0  0  0  0
   11.7256 -142.3723    9.4766 H   0  0  0  0  0  0  0  0  0  0  0  0
  1  2  1  0  0  0  0
  1  6  1  0  0  0  0
  1  7  1  1  0  0  0
  2  8  1  0  0  0  0
  2  9  1  0  0  0  0
  2 10  1  0  0  0  0
  4  3  2  0  0  0  0
  4  5  1  0  0  0  0
  4 11  1  0  0  0  0
  5  1  1  0  0  0  0
  5  6  1  0  0  0  0
  5 12  1  6  0  0  0
  6 13  1  0  0  0  0
  6 14  1  0  0  0  0
M  CHG  1   6   1
M  END
