4r1e_ligand
 OpenBabel08222323353D

263263  0  0  1  0  0  0  0  0999 V2000
  -14.8470    4.5270  -22.6200 N   0  3  0  0  0  0  0  0  0  0  0  0
  -13.8240    3.5010  -22.7080 C   0  0  0  0  0  0  0  0  0  0  0  0
  -12.7050    3.7110  -21.7070 C   0  0  0  0  0  0  0  0  0  0  0  0
  -12.9440    3.7950  -20.5020 O   0  0  0  0  0  0  0  0  0  0  0  0
  -11.4770    3.7950  -22.2080 N   0  0  0  0  0  0  0  0  0  0  0  0
  -10.3130    3.9960  -21.3540 C   0  0  2  0  0  0  0  0  0  0  0  0
  -10.5690    5.0860  -20.3190 C   0  0  0  0  0  0  0  0  0  0  0  0
  -10.3070    4.9020  -19.1300 O   0  0  0  0  0  0  0  0  0  0  0  0
   -9.0850    4.3490  -22.1960 C   0  0  0  0  0  0  0  0  0  0  0  0
   -9.4140    5.2810  -23.2120 O   0  0  0  0  0  0  0  0  0  0  0  0
  -11.0830    6.2230  -20.7790 N   0  0  0  0  0  0  0  0  0  0  0  0
  -11.3760    7.3440  -19.8940 C   0  0  2  0  0  0  0  0  0  0  0  0
  -12.0860    6.8780  -18.6280 C   0  0  0  0  0  0  0  0  0  0  0  0
  -11.6830    7.2220  -17.5170 O   0  0  0  0  0  0  0  0  0  0  0  0
  -12.2260    8.3900  -20.6190 C   0  0  0  0  0  0  0  0  0  0  0  0
  -12.5640    9.6550  -19.8280 C   0  0  0  0  0  0  0  0  0  0  0  0
  -11.3320   10.1840  -19.1090 C   0  0  0  0  0  0  0  0  0  0  0  0
  -13.1540   10.7190  -20.7410 C   0  0  0  0  0  0  0  0  0  0  0  0
  -13.1430    6.0920  -18.8030 N   0  0  0  0  0  0  0  0  0  0  0  0
  -13.9210    5.5710  -17.6600 C   0  0  2  0  0  0  0  0  0  0  0  0
  -13.0640    4.7760  -16.6900 C   0  0  0  0  0  0  0  0  0  0  0  0
  -13.2600    4.8650  -15.4800 O   0  0  0  0  0  0  0  0  0  0  0  0
  -15.0740    4.6800  -18.1030 C   0  0  0  0  0  0  0  0  0  0  0  0
  -16.0950    5.2530  -19.0890 C   0  0  0  0  0  0  0  0  0  0  0  0
  -17.3020    4.3240  -19.1400 C   0  0  0  0  0  0  0  0  0  0  0  0
  -16.5270    6.6650  -18.7430 C   0  0  0  0  0  0  0  0  0  0  0  0
  -12.1210    4.0060  -17.2180 N   0  0  0  0  0  0  0  0  0  0  0  0
  -11.2010    3.2470  -16.3760 C   0  0  2  0  0  0  0  0  0  0  0  0
  -10.2920    4.1810  -15.5760 C   0  0  0  0  0  0  0  0  0  0  0  0
  -10.0820    3.9680  -14.3780 O   0  0  0  0  0  0  0  0  0  0  0  0
  -10.3930    2.2290  -17.1990 C   0  0  0  0  0  0  0  0  0  0  0  0
  -11.2210    1.2490  -18.0550 C   0  0  0  0  0  0  0  0  0  0  0  0
  -12.3410    0.5200  -17.2950 C   0  0  0  0  0  0  0  0  0  0  0  0
  -11.8510   -0.0830  -16.0600 N   0  0  0  0  0  0  0  0  0  0  0  0
  -12.4290   -0.0080  -14.8580 C   0  0  0  0  0  3  0  0  0  0  0  0
  -13.6020    0.6100  -14.6750 N   0  0  0  0  0  0  0  0  0  0  0  0
  -11.8410   -0.5910  -13.8230 N   0  0  0  0  0  0  0  0  0  0  0  0
   -9.8060    5.2430  -16.2160 N   0  0  0  0  0  0  0  0  0  0  0  0
   -9.0230    6.2650  -15.5230 C   0  0  2  0  0  0  0  0  0  0  0  0
   -9.8450    6.8830  -14.3770 C   0  0  0  0  0  0  0  0  0  0  0  0
   -9.3850    6.9300  -13.2400 O   0  0  0  0  0  0  0  0  0  0  0  0
   -8.5120    7.3700  -16.4840 C   0  0  0  0  0  0  0  0  0  0  0  0
   -7.9340    8.5450  -15.7150 C   0  0  0  0  0  0  0  0  0  0  0  0
   -7.4500    6.8250  -17.4260 C   0  0  0  0  0  0  0  0  0  0  0  0
  -11.0660    7.3240  -14.6770 N   0  0  0  0  0  0  0  0  0  0  0  0
  -11.9150    7.9620  -13.6570 C   0  0  2  0  0  0  0  0  0  0  0  0
  -12.2440    6.9740  -12.5370 C   0  0  0  0  0  0  0  0  0  0  0  0
  -12.2700    7.3420  -11.3740 O   0  0  0  0  0  0  0  0  0  0  0  0
  -13.1810    8.5480  -14.2990 C   0  0  0  0  0  0  0  0  0  0  0  0
  -12.8880    9.7180  -15.2450 C   0  0  0  0  0  0  0  0  0  0  0  0
  -13.9560    9.9700  -16.3030 C   0  0  0  0  0  0  0  0  0  0  0  0
  -14.5660    9.0430  -16.8430 O   0  0  0  0  0  0  0  0  0  0  0  0
  -14.1580   11.2360  -16.6330 N   0  0  0  0  0  0  0  0  0  0  0  0
  -12.4560    5.7130  -12.8970 N   0  0  0  0  0  0  0  0  0  0  0  0
  -12.7770    4.6780  -11.9360 C   0  0  2  0  0  0  0  0  0  0  0  0
  -11.6350    4.4700  -10.9510 C   0  0  0  0  0  0  0  0  0  0  0  0
  -11.8610    4.4160   -9.7410 O   0  0  0  0  0  0  0  0  0  0  0  0
  -13.1270    3.3750  -12.6550 C   0  0  0  0  0  0  0  0  0  0  0  0
  -10.4020    4.4020  -11.4470 N   0  0  0  0  0  0  0  0  0  0  0  0
   -9.2690    4.2370  -10.5470 C   0  0  2  0  0  0  0  0  0  0  0  0
   -8.9920    5.4890   -9.6910 C   0  0  0  0  0  0  0  0  0  0  0  0
   -8.5470    5.3680   -8.5560 O   0  0  0  0  0  0  0  0  0  0  0  0
   -8.0340    3.7470  -11.3020 C   0  0  0  0  0  0  0  0  0  0  0  0
   -8.1210    2.2960  -11.6860 C   0  0  0  0  0  0  0  0  0  0  0  0
   -7.8530    1.2810  -10.8000 N   0  0  0  0  0  0  0  0  0  0  0  0
   -8.4740    1.6940  -12.8430 C   0  0  0  0  0  0  0  0  0  0  0  0
   -8.0390    0.1150  -11.3850 C   0  0  0  0  0  0  0  0  0  0  0  0
   -8.4110    0.3370  -12.6310 N   0  0  0  0  0  0  0  0  0  0  0  0
   -9.2780    6.6790  -10.2130 N   0  0  0  0  0  0  0  0  0  0  0  0
   -9.1570    7.8800   -9.3900 C   0  0  2  0  0  0  0  0  0  0  0  0
  -10.1780    7.8450   -8.2410 C   0  0  0  0  0  0  0  0  0  0  0  0
   -9.8190    8.0940   -7.0960 O   0  0  0  0  0  0  0  0  0  0  0  0
   -9.2800    9.1760  -10.2000 C   0  0  2  0  0  0  0  0  0  0  0  0
   -8.1070    9.2940  -11.1780 C   0  0  0  0  0  0  0  0  0  0  0  0
   -9.3180   10.3770   -9.2580 C   0  0  0  0  0  0  0  0  0  0  0  0
   -8.2590   10.4030  -12.1990 C   0  0  0  0  0  0  0  0  0  0  0  0
  -11.4260    7.4960   -8.5380 N   0  0  0  0  0  0  0  0  0  0  0  0
  -12.4390    7.3730   -7.4870 C   0  0  2  0  0  0  0  0  0  0  0  0
  -12.0500    6.3260   -6.4420 C   0  0  0  0  0  0  0  0  0  0  0  0
  -12.2070    6.5580   -5.2390 O   0  0  0  0  0  0  0  0  0  0  0  0
  -13.8200    7.0870   -8.0780 C   0  0  0  0  0  0  0  0  0  0  0  0
  -14.4270    8.2750   -8.8020 C   0  0  0  0  0  0  0  0  0  0  0  0
  -15.9390    8.1270   -8.9950 C   0  0  0  0  0  0  0  0  0  0  0  0
  -16.5150    9.3530   -9.5220 N   0  0  0  0  0  0  0  0  0  0  0  0
  -16.6100    9.6720  -10.8170 C   0  0  0  0  0  3  0  0  0  0  0  0
  -16.1880    8.8470  -11.7720 N   0  0  0  0  0  0  0  0  0  0  0  0
  -17.1320   10.8420  -11.1630 N   0  0  0  0  0  0  0  0  0  0  0  0
  -11.4960    5.2030   -6.8930 N   0  0  0  0  0  0  0  0  0  0  0  0
  -10.9820    4.1750   -5.9830 C   0  0  2  0  0  0  0  0  0  0  0  0
   -9.8840    4.7220   -5.0750 C   0  0  0  0  0  0  0  0  0  0  0  0
   -9.9310    4.5400   -3.8420 O   0  0  0  0  0  0  0  0  0  0  0  0
  -10.4570    2.9760   -6.7810 C   0  0  0  0  0  0  0  0  0  0  0  0
   -9.6390    1.9600   -5.9790 C   0  0  0  0  0  0  0  0  0  0  0  0
   -8.7400    1.1320   -6.8820 C   0  0  0  0  0  0  0  0  0  0  0  0
   -7.4520    1.8740   -7.2060 C   0  0  0  0  0  0  0  0  0  0  0  0
   -6.5460    1.0910   -8.0840 N   0  3  0  0  0  0  0  0  0  0  0  0
   -8.8940    5.3860   -5.6730 N   0  0  0  0  0  0  0  0  0  0  0  0
   -7.7810    5.9640   -4.8930 C   0  0  2  0  0  0  0  0  0  0  0  0
   -8.2430    6.9850   -3.8720 C   0  0  0  0  0  0  0  0  0  0  0  0
   -7.7110    7.0270   -2.7680 O   0  0  0  0  0  0  0  0  0  0  0  0
   -6.7200    6.6380   -5.7880 C   0  0  0  0  0  0  0  0  0  0  0  0
   -5.9530    5.7080   -6.7160 C   0  0  0  0  0  0  0  0  0  0  0  0
   -5.2310    4.5710   -5.9930 C   0  0  0  0  0  0  0  0  0  0  0  0
   -3.9330    5.0070   -5.3380 C   0  0  0  0  0  0  0  0  0  0  0  0
   -3.1080    3.8040   -5.0530 N   0  3  0  0  0  0  0  0  0  0  0  0
   -9.2180    7.8150   -4.2180 N   0  0  0  0  0  0  0  0  0  0  0  0
   -9.6100    8.8820   -3.3060 C   0  0  2  0  0  0  0  0  0  0  0  0
  -10.5430    8.3970   -2.1770 C   0  0  0  0  0  0  0  0  0  0  0  0
  -10.7930    9.1390   -1.2290 O   0  0  0  0  0  0  0  0  0  0  0  0
  -10.1960   10.0670   -4.0840 C   0  0  0  0  0  0  0  0  0  0  0  0
   -9.2060   10.7480   -5.0380 C   0  0  0  0  0  0  0  0  0  0  0  0
   -7.8040   11.6230   -4.2810 S   0  0  0  0  0  0  0  0  0  0  0  0
   -6.4850   10.4470   -4.5320 C   0  0  0  0  0  0  0  0  0  0  0  0
  -10.9840    7.1410   -2.2580 N   0  0  0  0  0  0  0  0  0  0  0  0
  -11.6660    6.4820   -1.1500 C   0  0  2  0  0  0  0  0  0  0  0  0
  -10.6670    5.8890   -0.1620 C   0  0  0  0  0  0  0  0  0  0  0  0
   -9.5250    5.5980   -0.5190 O   0  5  0  0  0  0  0  0  0  0  0  0
  -12.6050    5.3680   -1.6470 C   0  0  0  0  0  0  0  0  0  0  0  0
  -13.2460    4.6500   -0.4700 C   0  0  0  0  0  0  0  0  0  0  0  0
  -13.6670    5.9440   -2.5720 C   0  0  0  0  0  0  0  0  0  0  0  0
  -15.5658    4.3441  -23.3026 H   0  0  0  0  0  0  0  0  0  0  0  0
  -14.4346    5.4290  -22.7999 H   0  0  0  0  0  0  0  0  0  0  0  0
  -15.2510    4.5203  -21.6966 H   0  0  0  0  0  0  0  0  0  0  0  0
  -13.3975    3.5138  -23.7219 H   0  0  0  0  0  0  0  0  0  0  0  0
  -14.2885    2.5222  -22.5179 H   0  0  0  0  0  0  0  0  0  0  0  0
  -11.3482    3.7183  -23.1967 H   0  0  0  0  0  0  0  0  0  0  0  0
  -10.1108    3.0550  -20.8215 H   0  0  0  0  0  0  0  0  0  0  0  0
   -8.6934    3.4328  -22.6621 H   0  0  0  0  0  0  0  0  0  0  0  0
   -8.3152    4.7861  -21.5431 H   0  0  0  0  0  0  0  0  0  0  0  0
   -8.6363    5.4828  -23.7190 H   0  0  0  0  0  0  0  0  0  0  0  0
  -11.2734    6.3113  -21.7567 H   0  0  0  0  0  0  0  0  0  0  0  0
  -10.4233    7.8107  -19.6034 H   0  0  0  0  0  0  0  0  0  0  0  0
  -13.1737    7.9112  -20.9063 H   0  0  0  0  0  0  0  0  0  0  0  0
  -11.6808    8.6963  -21.5239 H   0  0  0  0  0  0  0  0  0  0  0  0
  -13.3186    9.3955  -19.0709 H   0  0  0  0  0  0  0  0  0  0  0  0
  -11.5969   11.0920  -18.5475 H   0  0  0  0  0  0  0  0  0  0  0  0
  -10.5517   10.4234  -19.8464 H   0  0  0  0  0  0  0  0  0  0  0  0
  -10.9568    9.4191  -18.4132 H   0  0  0  0  0  0  0  0  0  0  0  0
  -14.0419   10.3147  -21.2492 H   0  0  0  0  0  0  0  0  0  0  0  0
  -12.4055   11.0150  -21.4907 H   0  0  0  0  0  0  0  0  0  0  0  0
  -13.4415   11.5966  -20.1434 H   0  0  0  0  0  0  0  0  0  0  0  0
  -13.4191    5.8467  -19.7323 H   0  0  0  0  0  0  0  0  0  0  0  0
  -14.3384    6.4359  -17.1237 H   0  0  0  0  0  0  0  0  0  0  0  0
  -15.6250    4.3858  -17.1976 H   0  0  0  0  0  0  0  0  0  0  0  0
  -14.6345    3.7870  -18.5713 H   0  0  0  0  0  0  0  0  0  0  0  0
  -15.6299    5.2792  -20.0855 H   0  0  0  0  0  0  0  0  0  0  0  0
  -18.0439    4.7253  -19.8460 H   0  0  0  0  0  0  0  0  0  0  0  0
  -17.7510    4.2509  -18.1385 H   0  0  0  0  0  0  0  0  0  0  0  0
  -16.9823    3.3253  -19.4724 H   0  0  0  0  0  0  0  0  0  0  0  0
  -15.6445    7.3209  -18.7106 H   0  0  0  0  0  0  0  0  0  0  0  0
  -17.0214    6.6668  -17.7604 H   0  0  0  0  0  0  0  0  0  0  0  0
  -17.2283    7.0315  -19.5071 H   0  0  0  0  0  0  0  0  0  0  0  0
  -12.0389    3.9444  -18.2127 H   0  0  0  0  0  0  0  0  0  0  0  0
  -11.8060    2.6784  -15.6544 H   0  0  0  0  0  0  0  0  0  0  0  0
   -9.7855    1.6358  -16.4996 H   0  0  0  0  0  0  0  0  0  0  0  0
   -9.7310    2.7906  -17.8745 H   0  0  0  0  0  0  0  0  0  0  0  0
  -10.5374    0.4919  -18.4667 H   0  0  0  0  0  0  0  0  0  0  0  0
  -11.6790    1.8162  -18.8787 H   0  0  0  0  0  0  0  0  0  0  0  0
  -12.7526   -0.2710  -17.9391 H   0  0  0  0  0  0  0  0  0  0  0  0
  -13.1335    1.2421  -17.0491 H   0  0  0  0  0  0  0  0  0  0  0  0
  -10.9735   -0.6190  -16.1209 H   0  0  0  0  0  0  0  0  0  0  0  0
  -14.0216    0.6506  -13.7352 H   0  0  0  0  0  0  0  0  0  0  0  0
  -14.0851    1.0450  -15.4739 H   0  0  0  0  0  0  0  0  0  0  0  0
  -10.9381   -1.0709  -13.9468 H   0  0  0  0  0  0  0  0  0  0  0  0
  -12.2870   -0.5642  -12.8950 H   0  0  0  0  0  0  0  0  0  0  0  0
   -9.9810    5.3440  -17.1954 H   0  0  0  0  0  0  0  0  0  0  0  0
   -8.1432    5.7717  -15.0841 H   0  0  0  0  0  0  0  0  0  0  0  0
   -9.3636    7.7264  -17.0820 H   0  0  0  0  0  0  0  0  0  0  0  0
   -7.5815    9.3091  -16.4234 H   0  0  0  0  0  0  0  0  0  0  0  0
   -7.0911    8.2004  -15.0980 H   0  0  0  0  0  0  0  0  0  0  0  0
   -8.7107    8.9767  -15.0666 H   0  0  0  0  0  0  0  0  0  0  0  0
   -7.8605    5.9728  -17.9876 H   0  0  0  0  0  0  0  0  0  0  0  0
   -6.5778    6.4941  -16.8432 H   0  0  0  0  0  0  0  0  0  0  0  0
   -7.1435    7.6138  -18.1288 H   0  0  0  0  0  0  0  0  0  0  0  0
  -11.4113    7.2200  -15.6097 H   0  0  0  0  0  0  0  0  0  0  0  0
  -11.3481    8.7940  -13.2140 H   0  0  0  0  0  0  0  0  0  0  0  0
  -13.8473    8.9029  -13.4990 H   0  0  0  0  0  0  0  0  0  0  0  0
  -13.6841    7.7536  -14.8698 H   0  0  0  0  0  0  0  0  0  0  0  0
  -11.9384    9.5114  -15.7604 H   0  0  0  0  0  0  0  0  0  0  0  0
  -12.7854   10.6302  -14.6389 H   0  0  0  0  0  0  0  0  0  0  0  0
  -14.8449   11.4699  -17.3211 H   0  0  0  0  0  0  0  0  0  0  0  0
  -13.6237   11.9585  -16.1942 H   0  0  0  0  0  0  0  0  0  0  0  0
  -12.3917    5.4700  -13.8649 H   0  0  0  0  0  0  0  0  0  0  0  0
  -13.6607    5.0024  -11.3669 H   0  0  0  0  0  0  0  0  0  0  0  0
  -13.3680    2.5999  -11.9126 H   0  0  0  0  0  0  0  0  0  0  0  0
  -12.2688    3.0484  -13.2606 H   0  0  0  0  0  0  0  0  0  0  0  0
  -13.9961    3.5391  -13.3090 H   0  0  0  0  0  0  0  0  0  0  0  0
  -10.2540    4.4640  -12.4340 H   0  0  0  0  0  0  0  0  0  0  0  0
   -9.5428    3.4382   -9.8421 H   0  0  0  0  0  0  0  0  0  0  0  0
   -7.1515    3.8881  -10.6607 H   0  0  0  0  0  0  0  0  0  0  0  0
   -7.9215    4.3463  -12.2175 H   0  0  0  0  0  0  0  0  0  0  0  0
   -8.7558    2.1908  -13.7702 H   0  0  0  0  0  0  0  0  0  0  0  0
   -7.9084   -0.8615  -10.9209 H   0  0  0  0  0  0  0  0  0  0  0  0
   -8.6203   -0.3886  -13.3315 H   0  0  0  0  0  0  0  0  0  0  0  0
   -9.5747    6.7510  -11.1653 H   0  0  0  0  0  0  0  0  0  0  0  0
   -8.1517    7.8709   -8.9437 H   0  0  0  0  0  0  0  0  0  0  0  0
  -10.2175    9.1484  -10.7748 H   0  0  0  0  0  0  0  0  0  0  0  0
   -8.0098    8.3400  -11.7169 H   0  0  0  0  0  0  0  0  0  0  0  0
   -7.1917    9.4824  -10.5978 H   0  0  0  0  0  0  0  0  0  0  0  0
  -10.1660   10.2729   -8.5652 H   0  0  0  0  0  0  0  0  0  0  0  0
   -9.4353   11.2999   -9.8450 H   0  0  0  0  0  0  0  0  0  0  0  0
   -8.3801   10.4235   -8.6851 H   0  0  0  0  0  0  0  0  0  0  0  0
   -7.3784   10.4179  -12.8580 H   0  0  0  0  0  0  0  0  0  0  0  0
   -8.3454   11.3693  -11.6806 H   0  0  0  0  0  0  0  0  0  0  0  0
   -9.1635   10.2269  -12.7997 H   0  0  0  0  0  0  0  0  0  0  0  0
  -11.6759    7.3155   -9.4893 H   0  0  0  0  0  0  0  0  0  0  0  0
  -12.4962    8.3433   -6.9720 H   0  0  0  0  0  0  0  0  0  0  0  0
  -14.4953    6.7958   -7.2599 H   0  0  0  0  0  0  0  0  0  0  0  0
  -13.7279    6.2547   -8.7913 H   0  0  0  0  0  0  0  0  0  0  0  0
  -13.9517    8.3680   -9.7896 H   0  0  0  0  0  0  0  0  0  0  0  0
  -14.2327    9.1844   -8.2145 H   0  0  0  0  0  0  0  0  0  0  0  0
  -16.4054    7.8972   -8.0257 H   0  0  0  0  0  0  0  0  0  0  0  0
  -16.1338    7.3052   -9.6997 H   0  0  0  0  0  0  0  0  0  0  0  0
  -16.8808   10.0333   -8.8406 H   0  0  0  0  0  0  0  0  0  0  0  0
  -16.2735    9.1185  -12.7619 H   0  0  0  0  0  0  0  0  0  0  0  0
  -15.7759    7.9369  -11.5213 H   0  0  0  0  0  0  0  0  0  0  0  0
  -17.4637   11.4929  -10.4369 H   0  0  0  0  0  0  0  0  0  0  0  0
  -17.2054   11.0992  -12.1577 H   0  0  0  0  0  0  0  0  0  0  0  0
  -11.4285    5.0564   -7.8799 H   0  0  0  0  0  0  0  0  0  0  0  0
  -11.8129    3.8336   -5.3482 H   0  0  0  0  0  0  0  0  0  0  0  0
   -9.8201    3.3604   -7.5913 H   0  0  0  0  0  0  0  0  0  0  0  0
  -11.3218    2.4505   -7.2122 H   0  0  0  0  0  0  0  0  0  0  0  0
  -10.3274    1.2875   -5.4462 H   0  0  0  0  0  0  0  0  0  0  0  0
   -9.0153    2.4986   -5.2504 H   0  0  0  0  0  0  0  0  0  0  0  0
   -9.2743    0.9149   -7.8187 H   0  0  0  0  0  0  0  0  0  0  0  0
   -8.4923    0.1883   -6.3739 H   0  0  0  0  0  0  0  0  0  0  0  0
   -6.9265    2.0946   -6.2652 H   0  0  0  0  0  0  0  0  0  0  0  0
   -7.7065    2.8161   -7.7135 H   0  0  0  0  0  0  0  0  0  0  0  0
   -5.7112    1.6254   -8.2673 H   0  0  0  0  0  0  0  0  0  0  0  0
   -7.0132    0.8887   -8.9540 H   0  0  0  0  0  0  0  0  0  0  0  0
   -6.2984    0.2275   -7.6267 H   0  0  0  0  0  0  0  0  0  0  0  0
   -8.9055    5.4944   -6.6670 H   0  0  0  0  0  0  0  0  0  0  0  0
   -7.2983    5.1359   -4.3533 H   0  0  0  0  0  0  0  0  0  0  0  0
   -5.9916    7.1367   -5.1317 H   0  0  0  0  0  0  0  0  0  0  0  0
   -7.2295    7.3899   -6.4086 H   0  0  0  0  0  0  0  0  0  0  0  0
   -5.2050    6.3021   -7.2614 H   0  0  0  0  0  0  0  0  0  0  0  0
   -6.6639    5.2680   -7.4308 H   0  0  0  0  0  0  0  0  0  0  0  0
   -5.0054    3.7800   -6.7233 H   0  0  0  0  0  0  0  0  0  0  0  0
   -5.8983    4.1722   -5.2148 H   0  0  0  0  0  0  0  0  0  0  0  0
   -4.1530    5.5346   -4.3982 H   0  0  0  0  0  0  0  0  0  0  0  0
   -3.3850    5.6781   -6.0157 H   0  0  0  0  0  0  0  0  0  0  0  0
   -2.2434    4.0850   -4.6176 H   0  0  0  0  0  0  0  0  0  0  0  0
   -2.9086    3.3213   -5.9152 H   0  0  0  0  0  0  0  0  0  0  0  0
   -3.6124    3.1898   -4.4330 H   0  0  0  0  0  0  0  0  0  0  0  0
   -9.6807    7.7094   -5.0982 H   0  0  0  0  0  0  0  0  0  0  0  0
   -8.6908    9.2403   -2.8195 H   0  0  0  0  0  0  0  0  0  0  0  0
  -10.5459   10.8161   -3.3585 H   0  0  0  0  0  0  0  0  0  0  0  0
  -11.0490    9.7028   -4.6754 H   0  0  0  0  0  0  0  0  0  0  0  0
   -9.7700   11.4789   -5.6361 H   0  0  0  0  0  0  0  0  0  0  0  0
   -8.7948    9.9717   -5.7000 H   0  0  0  0  0  0  0  0  0  0  0  0
   -5.5504   10.8497   -4.1144 H   0  0  0  0  0  0  0  0  0  0  0  0
   -6.3566   10.2644   -5.6091 H   0  0  0  0  0  0  0  0  0  0  0  0
   -6.7351    9.5022   -4.0271 H   0  0  0  0  0  0  0  0  0  0  0  0
  -10.8421    6.6335   -3.1079 H   0  0  0  0  0  0  0  0  0  0  0  0
  -12.2697    7.2369   -0.6249 H   0  0  0  0  0  0  0  0  0  0  0  0
  -11.0142    5.6946    1.0335 O   0  0  0  0  0  0  0  0  0  0  0  0
  -12.0093    4.6384   -2.2152 H   0  0  0  0  0  0  0  0  0  0  0  0
  -13.9128    3.8584   -0.8424 H   0  0  0  0  0  0  0  0  0  0  0  0
  -13.8275    5.3690    0.1256 H   0  0  0  0  0  0  0  0  0  0  0  0
  -12.4615    4.2030    0.1583 H   0  0  0  0  0  0  0  0  0  0  0  0
  -13.1802    6.4576   -3.4142 H   0  0  0  0  0  0  0  0  0  0  0  0
  -14.2885    6.6608   -2.0153 H   0  0  0  0  0  0  0  0  0  0  0  0
  -14.3000    5.1301   -2.9553 H   0  0  0  0  0  0  0  0  0  0  0  0
  1  2  1  0  0  0  0
  1121  1  0  0  0  0
  1122  1  0  0  0  0
  1123  1  0  0  0  0
  2  3  1  0  0  0  0
  2124  1  0  0  0  0
  2125  1  0  0  0  0
  3  4  2  0  0  0  0
  3  5  1  0  0  0  0
  5  6  1  0  0  0  0
  5126  1  0  0  0  0
  6  7  1  0  0  0  0
  6  9  1  0  0  0  0
  6127  1  1  0  0  0
  7  8  2  0  0  0  0
  7 11  1  0  0  0  0
  9 10  1  0  0  0  0
  9128  1  0  0  0  0
  9129  1  0  0  0  0
 10130  1  0  0  0  0
 11 12  1  0  0  0  0
 11131  1  0  0  0  0
 12 13  1  0  0  0  0
 12 15  1  0  0  0  0
 12132  1  1  0  0  0
 13 14  2  0  0  0  0
 13 19  1  0  0  0  0
 15 16  1  0  0  0  0
 15133  1  0  0  0  0
 15134  1  0  0  0  0
 16 17  1  0  0  0  0
 16 18  1  0  0  0  0
 16135  1  0  0  0  0
 17136  1  0  0  0  0
 17137  1  0  0  0  0
 17138  1  0  0  0  0
 18139  1  0  0  0  0
 18140  1  0  0  0  0
 18141  1  0  0  0  0
 19 20  1  0  0  0  0
 19142  1  0  0  0  0
 20 21  1  0  0  0  0
 20 23  1  0  0  0  0
 20143  1  1  0  0  0
 21 22  2  0  0  0  0
 21 27  1  0  0  0  0
 23 24  1  0  0  0  0
 23144  1  0  0  0  0
 23145  1  0  0  0  0
 24 25  1  0  0  0  0
 24 26  1  0  0  0  0
 24146  1  0  0  0  0
 25147  1  0  0  0  0
 25148  1  0  0  0  0
 25149  1  0  0  0  0
 26150  1  0  0  0  0
 26151  1  0  0  0  0
 26152  1  0  0  0  0
 27 28  1  0  0  0  0
 27153  1  0  0  0  0
 28 29  1  0  0  0  0
 28 31  1  0  0  0  0
 28154  1  1  0  0  0
 29 30  2  0  0  0  0
 29 38  1  0  0  0  0
 31 32  1  0  0  0  0
 31155  1  0  0  0  0
 31156  1  0  0  0  0
 32 33  1  0  0  0  0
 32157  1  0  0  0  0
 32158  1  0  0  0  0
 33 34  1  0  0  0  0
 33159  1  0  0  0  0
 33160  1  0  0  0  0
 34 35  1  0  0  0  0
 34161  1  0  0  0  0
 35 36  1  0  0  0  0
 35 37  1  0  0  0  0
 36162  1  0  0  0  0
 36163  1  0  0  0  0
 37164  1  0  0  0  0
 37165  1  0  0  0  0
 38 39  1  0  0  0  0
 38166  1  0  0  0  0
 39 40  1  0  0  0  0
 39 42  1  0  0  0  0
 39167  1  1  0  0  0
 40 41  2  0  0  0  0
 40 45  1  0  0  0  0
 42 43  1  0  0  0  0
 42 44  1  0  0  0  0
 42168  1  0  0  0  0
 43169  1  0  0  0  0
 43170  1  0  0  0  0
 43171  1  0  0  0  0
 44172  1  0  0  0  0
 44173  1  0  0  0  0
 44174  1  0  0  0  0
 45 46  1  0  0  0  0
 45175  1  0  0  0  0
 46 47  1  0  0  0  0
 46 49  1  0  0  0  0
 46176  1  1  0  0  0
 47 48  2  0  0  0  0
 47 54  1  0  0  0  0
 49 50  1  0  0  0  0
 49177  1  0  0  0  0
 49178  1  0  0  0  0
 50 51  1  0  0  0  0
 50179  1  0  0  0  0
 50180  1  0  0  0  0
 51 52  2  0  0  0  0
 51 53  1  0  0  0  0
 53181  1  0  0  0  0
 53182  1  0  0  0  0
 54 55  1  0  0  0  0
 54183  1  0  0  0  0
 55 56  1  0  0  0  0
 55 58  1  0  0  0  0
 55184  1  1  0  0  0
 56 57  2  0  0  0  0
 56 59  1  0  0  0  0
 58185  1  0  0  0  0
 58186  1  0  0  0  0
 58187  1  0  0  0  0
 59 60  1  0  0  0  0
 59188  1  0  0  0  0
 60 61  1  0  0  0  0
 60 63  1  0  0  0  0
 60189  1  1  0  0  0
 61 62  2  0  0  0  0
 61 69  1  0  0  0  0
 63 64  1  0  0  0  0
 63190  1  0  0  0  0
 63191  1  0  0  0  0
 64 65  1  0  0  0  0
 64 66  2  0  0  0  0
 65 67  2  0  0  0  0
 66 68  1  0  0  0  0
 66192  1  0  0  0  0
 67 68  1  0  0  0  0
 67193  1  0  0  0  0
 68194  1  0  0  0  0
 69 70  1  0  0  0  0
 69195  1  0  0  0  0
 70 71  1  0  0  0  0
 70 73  1  0  0  0  0
 70196  1  1  0  0  0
 71 72  2  0  0  0  0
 71 77  1  0  0  0  0
 73 74  1  0  0  0  0
 73 75  1  0  0  0  0
 73197  1  6  0  0  0
 74 76  1  0  0  0  0
 74198  1  0  0  0  0
 74199  1  0  0  0  0
 75200  1  0  0  0  0
 75201  1  0  0  0  0
 75202  1  0  0  0  0
 76203  1  0  0  0  0
 76204  1  0  0  0  0
 76205  1  0  0  0  0
 77 78  1  0  0  0  0
 77206  1  0  0  0  0
 78 79  1  0  0  0  0
 78 81  1  0  0  0  0
 78207  1  1  0  0  0
 79 80  2  0  0  0  0
 79 88  1  0  0  0  0
 81 82  1  0  0  0  0
 81208  1  0  0  0  0
 81209  1  0  0  0  0
 82 83  1  0  0  0  0
 82210  1  0  0  0  0
 82211  1  0  0  0  0
 83 84  1  0  0  0  0
 83212  1  0  0  0  0
 83213  1  0  0  0  0
 84 85  1  0  0  0  0
 84214  1  0  0  0  0
 85 86  1  0  0  0  0
 85 87  1  0  0  0  0
 86215  1  0  0  0  0
 86216  1  0  0  0  0
 87217  1  0  0  0  0
 87218  1  0  0  0  0
 88 89  1  0  0  0  0
 88219  1  0  0  0  0
 89 90  1  0  0  0  0
 89 92  1  0  0  0  0
 89220  1  1  0  0  0
 90 91  2  0  0  0  0
 90 97  1  0  0  0  0
 92 93  1  0  0  0  0
 92221  1  0  0  0  0
 92222  1  0  0  0  0
 93 94  1  0  0  0  0
 93223  1  0  0  0  0
 93224  1  0  0  0  0
 94 95  1  0  0  0  0
 94225  1  0  0  0  0
 94226  1  0  0  0  0
 95 96  1  0  0  0  0
 95227  1  0  0  0  0
 95228  1  0  0  0  0
 96229  1  0  0  0  0
 96230  1  0  0  0  0
 96231  1  0  0  0  0
 97 98  1  0  0  0  0
 97232  1  0  0  0  0
 98 99  1  0  0  0  0
 98101  1  0  0  0  0
 98233  1  1  0  0  0
 99100  2  0  0  0  0
 99106  1  0  0  0  0
101102  1  0  0  0  0
101234  1  0  0  0  0
101235  1  0  0  0  0
102103  1  0  0  0  0
102236  1  0  0  0  0
102237  1  0  0  0  0
103104  1  0  0  0  0
103238  1  0  0  0  0
103239  1  0  0  0  0
104105  1  0  0  0  0
104240  1  0  0  0  0
104241  1  0  0  0  0
105242  1  0  0  0  0
105243  1  0  0  0  0
105244  1  0  0  0  0
106107  1  0  0  0  0
106245  1  0  0  0  0
107108  1  0  0  0  0
107110  1  0  0  0  0
107246  1  1  0  0  0
108109  2  0  0  0  0
108114  1  0  0  0  0
110111  1  0  0  0  0
110247  1  0  0  0  0
110248  1  0  0  0  0
111112  1  0  0  0  0
111249  1  0  0  0  0
111250  1  0  0  0  0
112113  1  0  0  0  0
113251  1  0  0  0  0
113252  1  0  0  0  0
113253  1  0  0  0  0
114115  1  0  0  0  0
114254  1  0  0  0  0
115116  1  0  0  0  0
115118  1  0  0  0  0
115255  1  1  0  0  0
116117  1  0  0  0  0
116256  2  0  0  0  0
118119  1  0  0  0  0
118120  1  0  0  0  0
118257  1  0  0  0  0
119258  1  0  0  0  0
119259  1  0  0  0  0
119260  1  0  0  0  0
120261  1  0  0  0  0
120262  1  0  0  0  0
120263  1  0  0  0  0
M  CHG  4   1   1  96   1 105   1 117  -1
M  END
