4r5x_ligand
 OpenBabel08222323353D

 43 45  0  0  1  0  0  0  0  0999 V2000
   11.9100    9.9770   18.9980 C   0  0  0  0  0  0  0  0  0  0  0  0
   17.4740    8.0140   10.0110 C   0  0  0  0  0  0  0  0  0  0  0  0
   18.2460    6.8760    9.7480 C   0  0  0  0  0  0  0  0  0  0  0  0
   18.6640    6.6160   12.1010 C   0  0  0  0  0  0  0  0  0  0  0  0
   13.6280    9.5960   15.2880 C   0  0  0  0  0  0  0  0  0  0  0  0
   14.1300    9.6470   13.9850 C   0  0  0  0  0  0  0  0  0  0  0  0
   13.9010   10.7690   13.1920 C   0  0  0  0  0  0  0  0  0  0  0  0
   13.1840   11.8350   13.7100 C   0  0  0  0  0  0  0  0  0  0  0  0
   12.6770   11.7920   15.0070 C   0  0  0  0  0  0  0  0  0  0  0  0
   12.9050   10.6770   15.7970 C   0  0  0  0  0  0  0  0  0  0  0  0
   12.4070   10.6510   17.0290 N   0  0  0  0  0  0  0  0  0  0  0  0
   11.7600   11.5140   17.5200 N   0  0  0  0  0  0  0  0  0  0  0  0
   11.4020   11.1790   18.7600 C   0  0  0  0  0  0  0  0  0  0  0  0
   12.5550    9.6400   17.8880 C   0  0  0  0  0  0  0  0  0  0  0  0
   14.4120   10.8460   11.8950 C   0  0  1  0  0  0  0  0  0  0  0  0
   15.1530    9.5930   11.5440 N   0  0  0  0  0  0  0  0  0  0  0  0
   13.3600   11.3610   10.8600 C   0  0  0  0  0  0  0  0  0  0  0  0
   12.4230   10.6950   10.4000 O   0  0  0  0  0  0  0  0  0  0  0  0
   13.5920   12.6100   10.4550 N   0  0  0  0  0  0  0  0  0  0  0  0
   12.6790   13.1350    9.5200 O   0  0  0  0  0  0  0  0  0  0  0  0
   16.5160    9.6110   11.6200 C   0  0  0  0  0  0  0  0  0  0  0  0
   17.2670    8.4530   11.3210 C   0  0  0  0  0  0  0  0  0  0  0  0
   17.1260   10.6190   11.9500 O   0  0  0  0  0  0  0  0  0  0  0  0
   18.8450    6.1720   10.7940 C   0  0  0  0  0  0  0  0  0  0  0  0
   17.8900    7.7500   12.3530 C   0  0  0  0  0  0  0  0  0  0  0  0
   18.4140    6.4630    8.4930 N   0  0  0  0  0  0  0  0  0  0  0  0
   11.8174    9.3907   19.9110 H   0  0  0  0  0  0  0  0  0  0  0  0
   17.0310    8.5618    9.1871 H   0  0  0  0  0  0  0  0  0  0  0  0
   19.1244    6.0807   12.9235 H   0  0  0  0  0  0  0  0  0  0  0  0
   13.7993    8.7195   15.9023 H   0  0  0  0  0  0  0  0  0  0  0  0
   14.6984    8.8124   13.5908 H   0  0  0  0  0  0  0  0  0  0  0  0
   13.0152   12.7139   13.0984 H   0  0  0  0  0  0  0  0  0  0  0  0
   12.1065   12.6275   15.3964 H   0  0  0  0  0  0  0  0  0  0  0  0
   10.8059   11.7782   19.4467 H   0  0  0  0  0  0  0  0  0  0  0  0
   13.1012    8.7145   17.7116 H   0  0  0  0  0  0  0  0  0  0  0  0
   15.1807   11.6323   11.9223 H   0  0  0  0  0  0  0  0  0  0  0  0
   14.6640    8.7675   11.2623 H   0  0  0  0  0  0  0  0  0  0  0  0
   14.3676   13.1420   10.7947 H   0  0  0  0  0  0  0  0  0  0  0  0
   12.9309   14.0236    9.2976 H   0  0  0  0  0  0  0  0  0  0  0  0
   19.4433    5.2911   10.5912 H   0  0  0  0  0  0  0  0  0  0  0  0
   17.7701    8.0926   13.3744 H   0  0  0  0  0  0  0  0  0  0  0  0
   17.9741    6.9791    7.7177 H   0  0  0  0  0  0  0  0  0  0  0  0
   18.9839    5.6275    8.2977 H   0  0  0  0  0  0  0  0  0  0  0  0
  1 13  1  0  0  0  0
  1 27  1  0  0  0  0
  2  3  2  0  0  0  0
  2 28  1  0  0  0  0
  3 24  1  0  0  0  0
  3 26  1  0  0  0  0
  4 25  1  0  0  0  0
  4 29  1  0  0  0  0
  5 10  1  0  0  0  0
  5 30  1  0  0  0  0
  6  5  2  0  0  0  0
  6 31  1  0  0  0  0
  7  6  1  0  0  0  0
  7  8  2  0  0  0  0
  8  9  1  0  0  0  0
  8 32  1  0  0  0  0
  9 10  2  0  0  0  0
  9 33  1  0  0  0  0
 10 11  1  0  0  0  0
 11 12  1  0  0  0  0
 11 14  1  0  0  0  0
 12 13  2  0  0  0  0
 13 34  1  0  0  0  0
 14  1  2  0  0  0  0
 14 35  1  0  0  0  0
 15  7  1  0  0  0  0
 15 17  1  0  0  0  0
 15 36  1  1  0  0  0
 16 15  1  0  0  0  0
 16 37  1  0  0  0  0
 17 18  2  0  0  0  0
 17 19  1  0  0  0  0
 19 20  1  0  0  0  0
 19 38  1  0  0  0  0
 20 39  1  0  0  0  0
 21 16  1  0  0  0  0
 21 22  1  0  0  0  0
 21 23  2  0  0  0  0
 22  2  1  0  0  0  0
 22 25  2  0  0  0  0
 24  4  2  0  0  0  0
 24 40  1  0  0  0  0
 25 41  1  0  0  0  0
 26 42  1  0  0  0  0
 26 43  1  0  0  0  0
M  END
