4r6t_ligand
 OpenBabel08222323353D

 44 45  0  0  1  0  0  0  0  0999 V2000
   92.2880   71.4320   30.7300 C   0  0  0  0  0  0  0  0  0  0  0  0
   91.5660   70.3580   31.5500 C   0  0  0  0  0  0  0  0  0  0  0  0
   92.4210   70.0530   32.7780 C   0  0  0  0  0  0  0  0  0  0  0  0
   91.4510   69.0500   30.7530 C   0  0  0  0  0  0  0  0  0  0  0  0
   90.2810   70.8360   32.0230 O   0  0  0  0  0  0  0  0  0  0  0  0
   89.3050   71.1730   31.1210 C   0  0  0  0  0  0  0  0  0  0  0  0
   89.4670   70.9960   29.9150 O   0  0  0  0  0  0  0  0  0  0  0  0
   88.1410   71.7070   31.5490 N   0  0  0  0  0  0  0  0  0  0  0  0
   87.0760   72.0470   30.5810 C   0  0  2  0  0  0  0  0  0  0  0  0
   87.1450   73.5090   30.1140 C   0  0  0  0  0  0  0  0  0  0  0  0
   86.8680   73.7950   28.9520 O   0  0  0  0  0  0  0  0  0  0  0  0
   87.4970   74.4180   31.0310 N   0  0  0  0  0  0  0  0  0  0  0  0
   87.5500   75.8140   30.5740 O   0  0  0  0  0  0  0  0  0  0  0  0
   85.8060   71.7880   31.0920 C   0  0  0  0  0  0  0  0  0  0  0  0
   85.1630   70.6300   30.6790 C   0  0  0  0  0  0  0  0  0  0  0  0
   83.8910   70.3340   31.1430 C   0  0  0  0  0  0  0  0  0  0  0  0
   85.1690   72.6650   31.9650 C   0  0  0  0  0  0  0  0  0  0  0  0
   83.8920   72.3680   32.4330 C   0  0  0  0  0  0  0  0  0  0  0  0
   83.2540   71.2000   32.0230 C   0  0  0  0  0  0  0  0  0  0  0  0
   82.0310   70.9160   32.4620 N   0  0  0  0  0  0  0  0  0  0  0  0
   81.4890   71.4020   33.4240 N   0  0  0  0  0  0  0  0  0  0  0  0
   80.2670   70.8900   33.5610 C   0  0  0  0  0  0  0  0  0  0  0  0
   80.0890   70.0270   32.5730 C   0  0  0  0  0  0  0  0  0  0  0  0
   81.2120   70.0450   31.8730 C   0  0  0  0  0  0  0  0  0  0  0  0
   93.2569   71.0410   30.3860 H   0  0  0  0  0  0  0  0  0  0  0  0
   92.4529   72.3217   31.3554 H   0  0  0  0  0  0  0  0  0  0  0  0
   91.6727   71.7043   29.8598 H   0  0  0  0  0  0  0  0  0  0  0  0
   91.9258   69.2827   33.3874 H   0  0  0  0  0  0  0  0  0  0  0  0
   92.5455   70.9686   33.3748 H   0  0  0  0  0  0  0  0  0  0  0  0
   93.4076   69.6879   32.4564 H   0  0  0  0  0  0  0  0  0  0  0  0
   90.8404   69.2209   29.8541 H   0  0  0  0  0  0  0  0  0  0  0  0
   90.9754   68.2801   31.3784 H   0  0  0  0  0  0  0  0  0  0  0  0
   92.4548   68.7123   30.4557 H   0  0  0  0  0  0  0  0  0  0  0  0
   87.9985   71.8733   32.5247 H   0  0  0  0  0  0  0  0  0  0  0  0
   87.2219   71.4064   29.6988 H   0  0  0  0  0  0  0  0  0  0  0  0
   87.7118   74.1620   31.9735 H   0  0  0  0  0  0  0  0  0  0  0  0
   88.1835   75.8918   29.8703 H   0  0  0  0  0  0  0  0  0  0  0  0
   85.6574   69.9541   29.9907 H   0  0  0  0  0  0  0  0  0  0  0  0
   83.3933   69.4270   30.8194 H   0  0  0  0  0  0  0  0  0  0  0  0
   85.6654   73.5760   32.2794 H   0  0  0  0  0  0  0  0  0  0  0  0
   83.3941   73.0460   33.1167 H   0  0  0  0  0  0  0  0  0  0  0  0
   79.5478   71.1357   34.3410 H   0  0  0  0  0  0  0  0  0  0  0  0
   79.2020   69.4265   32.3768 H   0  0  0  0  0  0  0  0  0  0  0  0
   81.4269   69.4575   30.9816 H   0  0  0  0  0  0  0  0  0  0  0  0
  1  2  1  0  0  0  0
  1 25  1  0  0  0  0
  1 26  1  0  0  0  0
  1 27  1  0  0  0  0
  2  3  1  0  0  0  0
  2  4  1  0  0  0  0
  2  5  1  0  0  0  0
  3 28  1  0  0  0  0
  3 29  1  0  0  0  0
  3 30  1  0  0  0  0
  4 31  1  0  0  0  0
  4 32  1  0  0  0  0
  4 33  1  0  0  0  0
  5  6  1  0  0  0  0
  6  7  2  0  0  0  0
  6  8  1  0  0  0  0
  8  9  1  0  0  0  0
  8 34  1  0  0  0  0
  9 10  1  0  0  0  0
  9 14  1  0  0  0  0
  9 35  1  6  0  0  0
 10 11  2  0  0  0  0
 10 12  1  0  0  0  0
 12 13  1  0  0  0  0
 12 36  1  0  0  0  0
 13 37  1  0  0  0  0
 14 15  2  0  0  0  0
 14 17  1  0  0  0  0
 15 16  1  0  0  0  0
 15 38  1  0  0  0  0
 16 19  2  0  0  0  0
 16 39  1  0  0  0  0
 17 18  2  0  0  0  0
 17 40  1  0  0  0  0
 18 19  1  0  0  0  0
 18 41  1  0  0  0  0
 19 20  1  0  0  0  0
 20 21  1  0  0  0  0
 20 24  1  0  0  0  0
 21 22  2  0  0  0  0
 22 23  1  0  0  0  0
 22 42  1  0  0  0  0
 23 24  2  0  0  0  0
 23 43  1  0  0  0  0
 24 44  1  0  0  0  0
M  END
