4r6x_ligand
 OpenBabel08222323353D

 46 48  0  0  1  0  0  0  0  0999 V2000
    8.4590   -0.6280   25.4500 N   0  3  0  0  0  0  0  0  0  0  0  0
    7.6180    0.3390   24.7130 C   0  0  1  0  0  0  0  0  0  0  0  0
    7.7650    1.7920   25.3280 C   0  0  0  0  0  0  0  0  0  0  0  0
    8.9730    2.6150   24.8650 C   0  0  0  0  0  0  0  0  0  0  0  0
    9.0910    4.3420   25.4410 S   0  0  0  0  0  0  0  0  0  0  0  0
    7.9120    0.2400   23.2680 C   0  0  0  0  0  0  0  0  0  0  0  0
    9.0350   -0.0540   22.9010 O   0  5  0  0  0  0  0  0  0  0  0  0
    7.0360    0.4280   22.4560 O   0  0  0  0  0  0  0  0  0  0  0  0
    9.7370    4.3590   27.1290 C   0  0  0  0  0  0  0  0  0  0  0  0
    8.8940    3.9640   28.2010 C   0  0  1  0  0  0  0  0  0  0  0  0
    9.7230    3.6980   29.3650 O   0  0  0  0  0  0  0  0  0  0  0  0
    8.0340    5.1050   28.5740 C   0  0  1  0  0  0  0  0  0  0  0  0
    6.6830    4.8090   28.3100 O   0  0  0  0  0  0  0  0  0  0  0  0
    8.2450    5.3260   30.0020 C   0  0  1  0  0  0  0  0  0  0  0  0
    7.0250    5.4220   30.6760 O   0  0  0  0  0  0  0  0  0  0  0  0
    8.9710    4.1130   30.4580 C   0  0  2  0  0  0  0  0  0  0  0  0
    9.7220    4.3740   31.7430 N   0  0  0  0  0  0  0  0  0  0  0  0
   10.6670    5.2940   31.9850 C   0  0  0  0  0  0  0  0  0  0  0  0
   11.0460    5.1510   33.2590 N   0  0  0  0  0  0  0  0  0  0  0  0
   10.3510    4.1530   33.8190 C   0  0  0  0  0  0  0  0  0  0  0  0
   10.3380    3.5830   35.1010 C   0  0  0  0  0  0  0  0  0  0  0  0
   11.1690    4.0530   36.0830 N   0  0  0  0  0  0  0  0  0  0  0  0
    9.4950    2.5600   35.3460 N   0  0  0  0  0  0  0  0  0  0  0  0
    8.6850    2.0930   34.3980 C   0  0  0  0  0  0  0  0  0  0  0  0
    8.6730    2.6230   33.1530 N   0  0  0  0  0  0  0  0  0  0  0  0
    9.4910    3.6450   32.8440 C   0  0  0  0  0  0  0  0  0  0  0  0
    8.2605   -0.5627   26.4361 H   0  0  0  0  0  0  0  0  0  0  0  0
    9.4317   -0.4188   25.2885 H   0  0  0  0  0  0  0  0  0  0  0  0
    8.2581   -1.5618   25.1280 H   0  0  0  0  0  0  0  0  0  0  0  0
    6.5672    0.0432   24.8480 H   0  0  0  0  0  0  0  0  0  0  0  0
    7.8323    1.6865   26.4208 H   0  0  0  0  0  0  0  0  0  0  0  0
    6.8574    2.3572   25.0694 H   0  0  0  0  0  0  0  0  0  0  0  0
    8.9549    2.6357   23.7654 H   0  0  0  0  0  0  0  0  0  0  0  0
    9.8781    2.0917   25.2071 H   0  0  0  0  0  0  0  0  0  0  0  0
   10.0602    5.3894   27.3383 H   0  0  0  0  0  0  0  0  0  0  0  0
   10.6103    3.6904   27.1448 H   0  0  0  0  0  0  0  0  0  0  0  0
    8.2951    3.0839   27.9241 H   0  0  0  0  0  0  0  0  0  0  0  0
    8.3264    6.0007   28.0064 H   0  0  0  0  0  0  0  0  0  0  0  0
    6.4225    4.0470   28.8141 H   0  0  0  0  0  0  0  0  0  0  0  0
    8.8406    6.2344   30.1751 H   0  0  0  0  0  0  0  0  0  0  0  0
    6.5360    4.6159   30.5597 H   0  0  0  0  0  0  0  0  0  0  0  0
    8.2380    3.3229   30.6782 H   0  0  0  0  0  0  0  0  0  0  0  0
   11.0543    6.0231   31.2748 H   0  0  0  0  0  0  0  0  0  0  0  0
   11.1509    3.6269   37.0205 H   0  0  0  0  0  0  0  0  0  0  0  0
   11.8121    4.8326   35.8840 H   0  0  0  0  0  0  0  0  0  0  0  0
    8.0196    1.2690   34.6290 H   0  0  0  0  0  0  0  0  0  0  0  0
  1  2  1  0  0  0  0
  1 27  1  0  0  0  0
  1 28  1  0  0  0  0
  1 29  1  0  0  0  0
  2  3  1  0  0  0  0
  2  6  1  0  0  0  0
  2 30  1  1  0  0  0
  3  4  1  0  0  0  0
  3 31  1  0  0  0  0
  3 32  1  0  0  0  0
  4  5  1  0  0  0  0
  4 33  1  0  0  0  0
  4 34  1  0  0  0  0
  5  9  1  0  0  0  0
  6  7  1  0  0  0  0
  6  8  2  0  0  0  0
  9 10  1  0  0  0  0
  9 35  1  0  0  0  0
  9 36  1  0  0  0  0
 10 11  1  0  0  0  0
 10 12  1  0  0  0  0
 10 37  1  6  0  0  0
 11 16  1  0  0  0  0
 12 13  1  0  0  0  0
 12 14  1  0  0  0  0
 12 38  1  6  0  0  0
 13 39  1  0  0  0  0
 14 15  1  0  0  0  0
 14 16  1  0  0  0  0
 14 40  1  1  0  0  0
 15 41  1  0  0  0  0
 16 17  1  0  0  0  0
 16 42  1  1  0  0  0
 17 18  1  0  0  0  0
 17 26  1  0  0  0  0
 18 19  2  0  0  0  0
 18 43  1  0  0  0  0
 19 20  1  0  0  0  0
 20 21  2  0  0  0  0
 20 26  1  0  0  0  0
 21 22  1  0  0  0  0
 21 23  1  0  0  0  0
 22 44  1  0  0  0  0
 22 45  1  0  0  0  0
 23 24  2  0  0  0  0
 24 25  1  0  0  0  0
 24 46  1  0  0  0  0
 25 26  2  0  0  0  0
M  CHG  2   1   1   7  -1
M  END
