4r7m_ligand
 OpenBabel08222323353D

 43 45  0  0  1  0  0  0  0  0999 V2000
   80.5240   69.7790   31.7690 C   0  0  0  0  0  0  0  0  0  0  0  0
   90.5400   71.2070   29.5200 C   0  0  0  0  0  0  0  0  0  0  0  0
   91.7370   70.6840   29.0340 C   0  0  0  0  0  0  0  0  0  0  0  0
   92.6740   70.7000   31.2520 C   0  0  0  0  0  0  0  0  0  0  0  0
   92.8030   70.4310   29.8960 C   0  0  0  0  0  0  0  0  0  0  0  0
   93.9470   69.9320   29.4310 N   0  0  0  0  0  0  0  0  0  0  0  0
   91.4800   71.2180   31.7350 C   0  0  0  0  0  0  0  0  0  0  0  0
   90.4080   71.4600   30.8810 C   0  0  0  0  0  0  0  0  0  0  0  0
   89.2510   72.0050   31.4300 C   0  0  0  0  0  0  0  0  0  0  0  0
   89.0910   72.0090   32.6480 O   0  0  0  0  0  0  0  0  0  0  0  0
   88.3890   72.5790   30.5750 N   0  0  0  0  0  0  0  0  0  0  0  0
   87.2120   73.3140   31.0860 C   0  0  1  0  0  0  0  0  0  0  0  0
   86.9750   74.5810   30.2490 C   0  0  0  0  0  0  0  0  0  0  0  0
   85.8410   75.0330   30.0850 O   0  0  0  0  0  0  0  0  0  0  0  0
   88.0820   75.1450   29.7530 N   0  0  0  0  0  0  0  0  0  0  0  0
   87.8970   76.3320   28.9810 O   0  0  0  0  0  0  0  0  0  0  0  0
   86.0030   72.6260   31.2120 C   0  0  0  0  0  0  0  0  0  0  0  0
   85.5550   71.6370   30.3390 C   0  0  0  0  0  0  0  0  0  0  0  0
   84.3100   71.0420   30.5650 C   0  0  0  0  0  0  0  0  0  0  0  0
   85.2060   73.0260   32.2760 C   0  0  0  0  0  0  0  0  0  0  0  0
   83.9740   72.4400   32.5000 C   0  0  0  0  0  0  0  0  0  0  0  0
   83.5240   71.4460   31.6470 C   0  0  0  0  0  0  0  0  0  0  0  0
   82.3310   70.9160   31.9020 N   0  0  0  0  0  0  0  0  0  0  0  0
   81.6610   71.2040   32.8760 N   0  0  0  0  0  0  0  0  0  0  0  0
   80.5180   70.5280   32.8620 C   0  0  0  0  0  0  0  0  0  0  0  0
   81.6760   70.0280   31.1580 C   0  0  0  0  0  0  0  0  0  0  0  0
   79.7419   69.0970   31.4386 H   0  0  0  0  0  0  0  0  0  0  0  0
   89.7192   71.4147   28.8431 H   0  0  0  0  0  0  0  0  0  0  0  0
   91.8400   70.4720   27.9759 H   0  0  0  0  0  0  0  0  0  0  0  0
   93.4990   70.5071   31.9281 H   0  0  0  0  0  0  0  0  0  0  0  0
   94.0501   69.7299   28.4263 H   0  0  0  0  0  0  0  0  0  0  0  0
   94.7286   69.7482   30.0761 H   0  0  0  0  0  0  0  0  0  0  0  0
   91.3812   71.4370   32.7920 H   0  0  0  0  0  0  0  0  0  0  0  0
   88.5436   72.5091   29.5895 H   0  0  0  0  0  0  0  0  0  0  0  0
   87.4824   73.6349   32.1028 H   0  0  0  0  0  0  0  0  0  0  0  0
   88.9893   74.7567   29.9140 H   0  0  0  0  0  0  0  0  0  0  0  0
   88.7410   76.6471   28.6795 H   0  0  0  0  0  0  0  0  0  0  0  0
   86.1638   71.3327   29.4953 H   0  0  0  0  0  0  0  0  0  0  0  0
   83.9536   70.2649   29.8986 H   0  0  0  0  0  0  0  0  0  0  0  0
   85.5544   73.8085   32.9403 H   0  0  0  0  0  0  0  0  0  0  0  0
   83.3639   72.7566   33.3382 H   0  0  0  0  0  0  0  0  0  0  0  0
   79.7259   70.5795   33.6075 H   0  0  0  0  0  0  0  0  0  0  0  0
   82.0204   69.5881   30.2232 H   0  0  0  0  0  0  0  0  0  0  0  0
  1 25  1  0  0  0  0
  1 27  1  0  0  0  0
  2  3  2  0  0  0  0
  2 28  1  0  0  0  0
  3  5  1  0  0  0  0
  3 29  1  0  0  0  0
  4  5  2  0  0  0  0
  4 30  1  0  0  0  0
  5  6  1  0  0  0  0
  6 31  1  0  0  0  0
  6 32  1  0  0  0  0
  7  4  1  0  0  0  0
  7 33  1  0  0  0  0
  8  2  1  0  0  0  0
  8  7  2  0  0  0  0
  9  8  1  0  0  0  0
  9 10  2  0  0  0  0
 11  9  1  0  0  0  0
 11 34  1  0  0  0  0
 12 11  1  0  0  0  0
 12 13  1  0  0  0  0
 12 35  1  1  0  0  0
 13 14  2  0  0  0  0
 13 15  1  0  0  0  0
 15 16  1  0  0  0  0
 15 36  1  0  0  0  0
 16 37  1  0  0  0  0
 17 12  1  0  0  0  0
 18 17  2  0  0  0  0
 18 38  1  0  0  0  0
 19 18  1  0  0  0  0
 19 39  1  0  0  0  0
 20 17  1  0  0  0  0
 20 40  1  0  0  0  0
 21 20  2  0  0  0  0
 21 41  1  0  0  0  0
 22 19  2  0  0  0  0
 22 21  1  0  0  0  0
 23 22  1  0  0  0  0
 23 24  1  0  0  0  0
 23 26  1  0  0  0  0
 24 25  2  0  0  0  0
 25 42  1  0  0  0  0
 26  1  2  0  0  0  0
 26 43  1  0  0  0  0
M  END
