4r8y_ligand
 OpenBabel08222323353D

 71 74  0  0  1  0  0  0  0  0999 V2000
   22.1780    9.9800   23.8510 C   0  0  2  0  0  3  0  0  0  0  0  0
   21.4360   11.8940   22.8770 C   0  0  0  0  0  0  0  0  0  0  0  0
   21.0300   10.7540   21.9740 C   0  0  2  0  0  0  0  0  0  0  0  0
   26.0730   12.7510   20.4320 C   0  0  0  0  0  0  0  0  0  0  0  0
   22.0820   11.3520   23.9660 N   0  0  0  0  0  0  0  0  0  0  0  0
   21.5700   10.8880   20.5420 C   0  0  0  0  0  0  0  0  0  0  0  0
   27.3680   12.5050   19.7150 C   0  0  0  0  0  0  0  0  0  0  0  0
   23.8540   11.8610   20.8720 C   0  0  0  0  0  0  0  0  0  0  0  0
   19.5070   10.6710   21.9240 C   0  0  0  0  0  0  0  0  0  0  0  0
   15.0300   11.0980   22.4530 C   0  0  0  0  0  0  0  0  0  0  0  0
   29.4760   10.8680   22.3950 C   0  0  0  0  0  0  0  0  0  0  0  0
   28.7030    9.6810   21.8840 C   0  0  0  0  0  0  0  0  0  0  0  0
   14.4790   10.7290   23.8270 C   0  0  0  0  0  0  0  0  0  0  0  0
   15.3340    9.7220   24.5930 C   0  0  0  0  0  0  0  0  0  0  0  0
   16.8070   10.1090   24.6030 C   0  0  0  0  0  0  0  0  0  0  0  0
   16.5120   11.4720   22.5020 C   0  0  0  0  0  0  0  0  0  0  0  0
   29.0360   12.0870   21.6110 C   0  0  0  0  0  0  0  0  0  0  0  0
   27.8310   10.1580   20.7440 C   0  0  0  0  0  0  0  0  0  0  0  0
   24.8530   11.1820   18.8130 C   0  0  0  0  0  0  0  0  0  0  0  0
   23.0720   10.6680   20.3740 C   0  0  2  0  0  0  0  0  0  0  0  0
   22.5960   12.1620   25.0650 C   0  0  0  0  0  0  0  0  0  0  0  0
   23.4940   10.5290   18.9250 C   0  0  0  0  0  0  0  0  0  0  0  0
   18.8030   10.7150   23.2830 C   0  0  0  0  0  0  0  0  0  0  0  0
   28.3340   11.5410   20.3960 C   0  0  0  0  0  0  0  0  0  0  0  0
   17.3260   10.3730   23.1960 C   0  0  0  0  0  0  0  0  0  0  0  0
   21.6030    9.6050   22.6650 N   0  0  0  0  0  0  0  0  0  0  0  0
   24.9860   11.9890   20.0100 N   0  0  0  0  0  0  0  0  0  0  0  0
   22.7160    9.2040   24.7390 N   0  0  0  0  0  0  0  0  0  0  0  0
   21.1810   13.0630   22.6560 O   0  0  0  0  0  0  0  0  0  0  0  0
   25.9960   13.5920   21.3220 O   0  0  0  0  0  0  0  0  0  0  0  0
   21.3358   11.9023   20.1867 H   0  0  0  0  0  0  0  0  0  0  0  0
   21.0487   10.1501   19.9144 H   0  0  0  0  0  0  0  0  0  0  0  0
   27.8801   13.4720   19.6028 H   0  0  0  0  0  0  0  0  0  0  0  0
   27.1308   12.0982   18.7209 H   0  0  0  0  0  0  0  0  0  0  0  0
   24.1821   11.6951   21.9087 H   0  0  0  0  0  0  0  0  0  0  0  0
   23.2347   12.7689   20.8241 H   0  0  0  0  0  0  0  0  0  0  0  0
   19.2344    9.7263   21.4308 H   0  0  0  0  0  0  0  0  0  0  0  0
   19.1403   11.5170   21.3241 H   0  0  0  0  0  0  0  0  0  0  0  0
   14.4618   11.9553   22.0628 H   0  0  0  0  0  0  0  0  0  0  0  0
   14.9047   10.2377   21.7791 H   0  0  0  0  0  0  0  0  0  0  0  0
   30.5538   10.7012   22.2516 H   0  0  0  0  0  0  0  0  0  0  0  0
   29.2671   11.0170   23.4646 H   0  0  0  0  0  0  0  0  0  0  0  0
   28.0761    9.2676   22.6878 H   0  0  0  0  0  0  0  0  0  0  0  0
   29.3978    8.9070   21.5260 H   0  0  0  0  0  0  0  0  0  0  0  0
   13.4758   10.2983   23.6924 H   0  0  0  0  0  0  0  0  0  0  0  0
   14.4061   11.6475   24.4278 H   0  0  0  0  0  0  0  0  0  0  0  0
   15.2301    8.7352   24.1182 H   0  0  0  0  0  0  0  0  0  0  0  0
   14.9745    9.6691   25.6312 H   0  0  0  0  0  0  0  0  0  0  0  0
   17.3886    9.2894   25.0502 H   0  0  0  0  0  0  0  0  0  0  0  0
   16.9329   11.0198   25.2068 H   0  0  0  0  0  0  0  0  0  0  0  0
   16.6286   12.4136   23.0586 H   0  0  0  0  0  0  0  0  0  0  0  0
   16.8852   11.6041   21.4757 H   0  0  0  0  0  0  0  0  0  0  0  0
   29.9067   12.6905   21.3150 H   0  0  0  0  0  0  0  0  0  0  0  0
   28.3489   12.7034   22.2093 H   0  0  0  0  0  0  0  0  0  0  0  0
   26.7778   10.2007   21.0585 H   0  0  0  0  0  0  0  0  0  0  0  0
   27.9284    9.4855   19.8790 H   0  0  0  0  0  0  0  0  0  0  0  0
   24.9046   11.8138   17.9140 H   0  0  0  0  0  0  0  0  0  0  0  0
   25.6451   10.4199   18.7715 H   0  0  0  0  0  0  0  0  0  0  0  0
   23.3570    9.7651   20.9339 H   0  0  0  0  0  0  0  0  0  0  0  0
   23.0683   11.5080   25.8128 H   0  0  0  0  0  0  0  0  0  0  0  0
   21.7674   12.7144   25.5321 H   0  0  0  0  0  0  0  0  0  0  0  0
   23.3400   12.8743   24.6788 H   0  0  0  0  0  0  0  0  0  0  0  0
   23.5581    9.4665   18.6475 H   0  0  0  0  0  0  0  0  0  0  0  0
   22.7724   11.0367   18.2681 H   0  0  0  0  0  0  0  0  0  0  0  0
   18.9044   11.7287   23.6980 H   0  0  0  0  0  0  0  0  0  0  0  0
   19.2911    9.9933   23.9545 H   0  0  0  0  0  0  0  0  0  0  0  0
   29.1195   11.3817   19.6426 H   0  0  0  0  0  0  0  0  0  0  0  0
   17.2190    9.4515   22.6049 H   0  0  0  0  0  0  0  0  0  0  0  0
   21.5788    8.6389   22.3087 H   0  0  0  0  0  0  0  0  0  0  0  0
   23.1190    9.6057   25.5976 H   0  0  0  0  0  0  0  0  0  0  0  0
   22.7405    8.1857   24.5861 H   0  0  0  0  0  0  0  0  0  0  0  0
  1  5  1  0  0  0  0
  1 28  1  1  0  0  0
  2  5  1  0  0  0  0
  2 29  2  0  0  0  0
  3  2  1  0  0  0  0
  3  6  1  6  0  0  0
  3 26  1  0  0  0  0
  4  7  1  0  0  0  0
  4 30  2  0  0  0  0
  5 21  1  0  0  0  0
  6 20  1  0  0  0  0
  6 31  1  0  0  0  0
  6 32  1  0  0  0  0
  7 24  1  0  0  0  0
  7 33  1  0  0  0  0
  7 34  1  0  0  0  0
  8 27  1  0  0  0  0
  8 35  1  0  0  0  0
  8 36  1  0  0  0  0
  9  3  1  0  0  0  0
  9 37  1  0  0  0  0
  9 38  1  0  0  0  0
 10 13  1  0  0  0  0
 10 39  1  0  0  0  0
 10 40  1  0  0  0  0
 11 41  1  0  0  0  0
 11 42  1  0  0  0  0
 12 11  1  0  0  0  0
 12 43  1  0  0  0  0
 12 44  1  0  0  0  0
 13 45  1  0  0  0  0
 13 46  1  0  0  0  0
 14 13  1  0  0  0  0
 14 47  1  0  0  0  0
 14 48  1  0  0  0  0
 15 14  1  0  0  0  0
 15 49  1  0  0  0  0
 15 50  1  0  0  0  0
 16 10  1  0  0  0  0
 16 51  1  0  0  0  0
 16 52  1  0  0  0  0
 17 11  1  0  0  0  0
 17 53  1  0  0  0  0
 17 54  1  0  0  0  0
 18 12  1  0  0  0  0
 18 55  1  0  0  0  0
 18 56  1  0  0  0  0
 19 27  1  0  0  0  0
 19 57  1  0  0  0  0
 19 58  1  0  0  0  0
 20  8  1  0  0  0  0
 20 22  1  0  0  0  0
 20 59  1  1  0  0  0
 21 60  1  0  0  0  0
 21 61  1  0  0  0  0
 21 62  1  0  0  0  0
 22 19  1  0  0  0  0
 22 63  1  0  0  0  0
 22 64  1  0  0  0  0
 23  9  1  0  0  0  0
 23 25  1  0  0  0  0
 23 65  1  0  0  0  0
 23 66  1  0  0  0  0
 24 17  1  0  0  0  0
 24 18  1  0  0  0  0
 24 67  1  0  0  0  0
 25 15  1  0  0  0  0
 25 16  1  0  0  0  0
 25 68  1  0  0  0  0
 26  1  1  0  0  0  0
 26 69  1  0  0  0  0
 27  4  1  0  0  0  0
 28 70  1  0  0  0  0
 28 71  1  0  0  0  0
M  END
