4r92_ligand
 OpenBabel08222323353D

 70 73  0  0  1  0  0  0  0  0999 V2000
   21.3210   11.8320   23.2280 C   0  0  0  0  0  0  0  0  0  0  0  0
   20.9120   10.7230   22.2730 C   0  0  1  0  0  0  0  0  0  0  0  0
   21.4960    9.5480   22.9030 N   0  0  0  0  0  0  0  0  0  0  0  0
   22.1270    9.8900   24.0750 C   0  0  2  0  0  3  0  0  0  0  0  0
   22.0400   11.2540   24.2480 N   0  0  0  0  0  0  0  0  0  0  0  0
   20.9910   12.9990   23.1300 O   0  0  0  0  0  0  0  0  0  0  0  0
   19.3960   10.5560   22.2220 C   0  0  0  0  0  0  0  0  0  0  0  0
   22.9290   11.0380   20.6940 C   0  0  2  0  0  0  0  0  0  0  0  0
   18.6980   10.5200   23.5880 C   0  0  0  0  0  0  0  0  0  0  0  0
   17.2440   10.0750   23.5440 C   0  0  0  0  0  0  0  0  0  0  0  0
   23.3790   12.1880   19.8090 C   0  0  0  0  0  0  0  0  0  0  0  0
   24.8990   12.1330   19.6430 C   0  0  1  0  0  0  0  0  0  0  0  0
   25.3860   10.7850   19.1240 C   0  0  0  0  0  0  0  0  0  0  0  0
   24.9360    9.6890   20.0660 C   0  0  0  0  0  0  0  0  0  0  0  0
   23.4120    9.7060   20.1310 C   0  0  0  0  0  0  0  0  0  0  0  0
   16.8070    9.7490   24.9690 C   0  0  0  0  0  0  0  0  0  0  0  0
   15.3400    9.3440   25.0860 C   0  0  0  0  0  0  0  0  0  0  0  0
   14.4240   10.3670   24.4230 C   0  0  0  0  0  0  0  0  0  0  0  0
   14.8820   10.7200   23.0120 C   0  0  0  0  0  0  0  0  0  0  0  0
   16.3460   11.1520   22.9480 C   0  0  0  0  0  0  0  0  0  0  0  0
   22.7340    9.1050   24.9020 N   0  0  0  0  0  0  0  0  0  0  0  0
   25.3890   13.2070   18.8180 N   0  0  0  0  0  0  0  0  0  0  0  0
   25.7620   14.3990   19.4200 C   0  0  0  0  0  0  0  0  0  0  0  0
   21.4150   10.9760   20.8540 C   0  0  0  0  0  0  0  0  0  0  0  0
   22.6500   12.0160   25.3330 C   0  0  0  0  0  0  0  0  0  0  0  0
   25.6810   14.6460   20.6200 O   0  0  0  0  0  0  0  0  0  0  0  0
   26.3040   15.4100   18.5030 C   0  0  0  0  0  0  0  0  0  0  0  0
   26.4830   16.7050   18.9550 C   0  0  0  0  0  0  0  0  0  0  0  0
   27.0000   17.6220   18.0610 C   0  0  0  0  0  0  0  0  0  0  0  0
   26.6360   15.0760   17.2070 C   0  0  0  0  0  0  0  0  0  0  0  0
   27.1570   16.0680   16.4020 C   0  0  0  0  0  0  0  0  0  0  0  0
   27.3490   17.3360   16.7970 N   0  0  0  0  0  0  0  0  0  0  0  0
   21.4436    8.5921   22.5229 H   0  0  0  0  0  0  0  0  0  0  0  0
   19.1745    9.6126   21.7014 H   0  0  0  0  0  0  0  0  0  0  0  0
   18.9797   11.3976   21.6489 H   0  0  0  0  0  0  0  0  0  0  0  0
   23.3753   11.1830   21.6889 H   0  0  0  0  0  0  0  0  0  0  0  0
   18.7344   11.5315   24.0188 H   0  0  0  0  0  0  0  0  0  0  0  0
   19.2502    9.8247   24.2374 H   0  0  0  0  0  0  0  0  0  0  0  0
   17.1645    9.1700   22.9238 H   0  0  0  0  0  0  0  0  0  0  0  0
   23.0945   13.1431   20.2745 H   0  0  0  0  0  0  0  0  0  0  0  0
   22.8984   12.1030   18.8232 H   0  0  0  0  0  0  0  0  0  0  0  0
   25.3335   12.2685   20.6444 H   0  0  0  0  0  0  0  0  0  0  0  0
   26.4844   10.7898   19.0653 H   0  0  0  0  0  0  0  0  0  0  0  0
   24.9661   10.6038   18.1236 H   0  0  0  0  0  0  0  0  0  0  0  0
   25.3526    9.8664   21.0685 H   0  0  0  0  0  0  0  0  0  0  0  0
   25.2811    8.7135   19.6929 H   0  0  0  0  0  0  0  0  0  0  0  0
   23.0027    9.5682   19.1193 H   0  0  0  0  0  0  0  0  0  0  0  0
   23.0660    8.8888   20.7810 H   0  0  0  0  0  0  0  0  0  0  0  0
   16.9721   10.6386   25.5945 H   0  0  0  0  0  0  0  0  0  0  0  0
   17.4265    8.9194   25.3405 H   0  0  0  0  0  0  0  0  0  0  0  0
   15.0750    9.2638   26.1506 H   0  0  0  0  0  0  0  0  0  0  0  0
   15.1984    8.3683   24.5983 H   0  0  0  0  0  0  0  0  0  0  0  0
   14.4157   11.2828   25.0323 H   0  0  0  0  0  0  0  0  0  0  0  0
   13.4069    9.9513   24.3718 H   0  0  0  0  0  0  0  0  0  0  0  0
   14.2571   11.5439   22.6369 H   0  0  0  0  0  0  0  0  0  0  0  0
   14.7491    9.8371   22.3695 H   0  0  0  0  0  0  0  0  0  0  0  0
   16.6288   11.3197   21.8983 H   0  0  0  0  0  0  0  0  0  0  0  0
   16.4736   12.0854   23.5158 H   0  0  0  0  0  0  0  0  0  0  0  0
   22.7668    8.0917   24.7205 H   0  0  0  0  0  0  0  0  0  0  0  0
   23.1852    9.4924   25.7430 H   0  0  0  0  0  0  0  0  0  0  0  0
   25.4591   13.0948   17.8268 H   0  0  0  0  0  0  0  0  0  0  0  0
   20.9991   11.9357   20.5134 H   0  0  0  0  0  0  0  0  0  0  0  0
   21.0397   10.1653   20.2122 H   0  0  0  0  0  0  0  0  0  0  0  0
   22.4108   13.0828   25.2114 H   0  0  0  0  0  0  0  0  0  0  0  0
   23.7413   11.8798   25.3084 H   0  0  0  0  0  0  0  0  0  0  0  0
   22.2577   11.6598   26.2970 H   0  0  0  0  0  0  0  0  0  0  0  0
   26.2279   16.9886   19.9697 H   0  0  0  0  0  0  0  0  0  0  0  0
   27.1329   18.6419   18.4034 H   0  0  0  0  0  0  0  0  0  0  0  0
   26.4926   14.0685   16.8335 H   0  0  0  0  0  0  0  0  0  0  0  0
   27.4285   15.8064   15.3857 H   0  0  0  0  0  0  0  0  0  0  0  0
  1  5  1  0  0  0  0
  1  6  2  0  0  0  0
  2  1  1  0  0  0  0
  2  3  1  0  0  0  0
  2  7  1  6  0  0  0
  3  4  1  0  0  0  0
  3 33  1  0  0  0  0
  4  5  1  0  0  0  0
  4 21  1  6  0  0  0
  5 25  1  0  0  0  0
  7  9  1  0  0  0  0
  7 34  1  0  0  0  0
  7 35  1  0  0  0  0
  8 11  1  0  0  0  0
  8 15  1  0  0  0  0
  8 24  1  0  0  0  0
  8 36  1  1  0  0  0
  9 10  1  0  0  0  0
  9 37  1  0  0  0  0
  9 38  1  0  0  0  0
 10 16  1  0  0  0  0
 10 20  1  0  0  0  0
 10 39  1  0  0  0  0
 11 12  1  0  0  0  0
 11 40  1  0  0  0  0
 11 41  1  0  0  0  0
 12 13  1  0  0  0  0
 12 22  1  0  0  0  0
 12 42  1  1  0  0  0
 13 14  1  0  0  0  0
 13 43  1  0  0  0  0
 13 44  1  0  0  0  0
 14 15  1  0  0  0  0
 14 45  1  0  0  0  0
 14 46  1  0  0  0  0
 15 47  1  0  0  0  0
 15 48  1  0  0  0  0
 16 17  1  0  0  0  0
 16 49  1  0  0  0  0
 16 50  1  0  0  0  0
 17 18  1  0  0  0  0
 17 51  1  0  0  0  0
 17 52  1  0  0  0  0
 18 19  1  0  0  0  0
 18 53  1  0  0  0  0
 18 54  1  0  0  0  0
 19 20  1  0  0  0  0
 19 55  1  0  0  0  0
 19 56  1  0  0  0  0
 20 57  1  0  0  0  0
 20 58  1  0  0  0  0
 21 59  1  0  0  0  0
 21 60  1  0  0  0  0
 22 23  1  0  0  0  0
 22 61  1  0  0  0  0
 23 26  2  0  0  0  0
 23 27  1  0  0  0  0
 24  2  1  0  0  0  0
 24 62  1  0  0  0  0
 24 63  1  0  0  0  0
 25 64  1  0  0  0  0
 25 65  1  0  0  0  0
 25 66  1  0  0  0  0
 27 28  2  0  0  0  0
 27 30  1  0  0  0  0
 28 29  1  0  0  0  0
 28 67  1  0  0  0  0
 29 32  2  0  0  0  0
 29 68  1  0  0  0  0
 30 31  2  0  0  0  0
 30 69  1  0  0  0  0
 31 32  1  0  0  0  0
 31 70  1  0  0  0  0
M  END
