4r93_ligand
 OpenBabel08222323353D

 73 76  0  0  1  0  0  0  0  0999 V2000
   21.2960   11.9190   23.1090 C   0  0  0  0  0  0  0  0  0  0  0  0
   20.8880   10.7990   22.1680 C   0  0  1  0  0  0  0  0  0  0  0  0
   21.4340    9.6260   22.8430 N   0  0  0  0  0  0  0  0  0  0  0  0
   22.0730    9.9810   24.0060 C   0  0  2  0  0  3  0  0  0  0  0  0
   21.9820   11.3410   24.1490 N   0  0  0  0  0  0  0  0  0  0  0  0
   21.0130   13.1010   22.9650 O   0  0  0  0  0  0  0  0  0  0  0  0
   19.3650   10.6810   22.0970 C   0  0  0  0  0  0  0  0  0  0  0  0
   22.9630   11.0730   20.6140 C   0  0  2  0  0  0  0  0  0  0  0  0
   18.6530   10.5960   23.4560 C   0  0  0  0  0  0  0  0  0  0  0  0
   17.1800   10.1890   23.3820 C   0  0  0  0  0  0  0  0  0  0  0  0
   23.3710   11.9700   19.4450 C   0  0  0  0  0  0  0  0  0  0  0  0
   24.8930   12.0280   19.2760 C   0  0  1  0  0  0  0  0  0  0  0  0
   25.5270   10.6380   19.2010 C   0  0  0  0  0  0  0  0  0  0  0  0
   25.0820    9.7560   20.3640 C   0  0  0  0  0  0  0  0  0  0  0  0
   23.5580    9.6700   20.4590 C   0  0  0  0  0  0  0  0  0  0  0  0
   16.6700    9.9420   24.7950 C   0  0  0  0  0  0  0  0  0  0  0  0
   15.2100    9.4870   24.8320 C   0  0  0  0  0  0  0  0  0  0  0  0
   14.3140   10.4650   24.0960 C   0  0  0  0  0  0  0  0  0  0  0  0
   14.8350   10.7860   22.6990 C   0  0  0  0  0  0  0  0  0  0  0  0
   16.2980   11.2260   22.6910 C   0  0  0  0  0  0  0  0  0  0  0  0
   22.6790    9.1980   24.8380 N   0  0  0  0  0  0  0  0  0  0  0  0
   25.2920   12.8110   18.1220 N   0  0  0  0  0  0  0  0  0  0  0  0
   25.8300   14.0770   18.2970 C   0  0  0  0  0  0  0  0  0  0  0  0
   21.4440   11.0000   20.7510 C   0  0  0  0  0  0  0  0  0  0  0  0
   22.5630   12.1160   25.2360 C   0  0  0  0  0  0  0  0  0  0  0  0
   25.8470   14.6520   19.3810 O   0  0  0  0  0  0  0  0  0  0  0  0
   26.3020   14.5980   17.1170 N   0  0  0  0  0  0  0  0  0  0  0  0
   26.7720   15.9160   16.8940 C   0  0  0  0  0  0  0  0  0  0  0  0
   27.2080   16.2230   15.6190 C   0  0  0  0  0  0  0  0  0  0  0  0
   27.6780   17.4950   15.3320 C   0  0  0  0  0  0  0  0  0  0  0  0
   27.6960   18.4670   16.3160 C   0  0  0  0  0  0  0  0  0  0  0  0
   27.2590   18.1710   17.5910 C   0  0  0  0  0  0  0  0  0  0  0  0
   26.8060   16.8950   17.8810 C   0  0  0  0  0  0  0  0  0  0  0  0
   21.3512    8.6605   22.4939 H   0  0  0  0  0  0  0  0  0  0  0  0
   19.1199    9.7729   21.5267 H   0  0  0  0  0  0  0  0  0  0  0  0
   18.9794   11.5633   21.5651 H   0  0  0  0  0  0  0  0  0  0  0  0
   23.3666   11.5147   21.5370 H   0  0  0  0  0  0  0  0  0  0  0  0
   18.7117   11.5840   23.9359 H   0  0  0  0  0  0  0  0  0  0  0  0
   19.1822    9.8560   24.0743 H   0  0  0  0  0  0  0  0  0  0  0  0
   17.1122    9.2517   22.8103 H   0  0  0  0  0  0  0  0  0  0  0  0
   22.9942   12.9871   19.6283 H   0  0  0  0  0  0  0  0  0  0  0  0
   22.9250   11.5748   18.5204 H   0  0  0  0  0  0  0  0  0  0  0  0
   25.2961   12.5271   20.1695 H   0  0  0  0  0  0  0  0  0  0  0  0
   26.6216   10.7425   19.2304 H   0  0  0  0  0  0  0  0  0  0  0  0
   25.2295   10.1601   18.2560 H   0  0  0  0  0  0  0  0  0  0  0  0
   25.4742   10.1775   21.3013 H   0  0  0  0  0  0  0  0  0  0  0  0
   25.4876    8.7438   20.2191 H   0  0  0  0  0  0  0  0  0  0  0  0
   23.1617    9.2052   19.5442 H   0  0  0  0  0  0  0  0  0  0  0  0
   23.2813    9.0586   21.3305 H   0  0  0  0  0  0  0  0  0  0  0  0
   16.7607   10.8761   25.3688 H   0  0  0  0  0  0  0  0  0  0  0  0
   17.2917    9.1634   25.2611 H   0  0  0  0  0  0  0  0  0  0  0  0
   14.8818    9.4177   25.8796 H   0  0  0  0  0  0  0  0  0  0  0  0
   15.1297    8.4984   24.3564 H   0  0  0  0  0  0  0  0  0  0  0  0
   14.2569   11.3981   24.6756 H   0  0  0  0  0  0  0  0  0  0  0  0
   13.3091   10.0266   24.0070 H   0  0  0  0  0  0  0  0  0  0  0  0
   14.2236   11.5962   22.2750 H   0  0  0  0  0  0  0  0  0  0  0  0
   14.7367    9.8865   22.0735 H   0  0  0  0  0  0  0  0  0  0  0  0
   16.6322   11.3476   21.6501 H   0  0  0  0  0  0  0  0  0  0  0  0
   16.3886   12.1863   23.2198 H   0  0  0  0  0  0  0  0  0  0  0  0
   22.7060    8.1832   24.6638 H   0  0  0  0  0  0  0  0  0  0  0  0
   23.1346    9.5892   25.6748 H   0  0  0  0  0  0  0  0  0  0  0  0
   25.1792   12.4381   17.2010 H   0  0  0  0  0  0  0  0  0  0  0  0
   21.0286   11.9406   20.3603 H   0  0  0  0  0  0  0  0  0  0  0  0
   21.0937   10.1599   20.1333 H   0  0  0  0  0  0  0  0  0  0  0  0
   22.3304   13.1814   25.0918 H   0  0  0  0  0  0  0  0  0  0  0  0
   23.6541   11.9766   25.2433 H   0  0  0  0  0  0  0  0  0  0  0  0
   22.1434   11.7756   26.1941 H   0  0  0  0  0  0  0  0  0  0  0  0
   26.3154   13.9806   16.3305 H   0  0  0  0  0  0  0  0  0  0  0  0
   27.1824   15.4676   14.8419 H   0  0  0  0  0  0  0  0  0  0  0  0
   28.0322   17.7285   14.3344 H   0  0  0  0  0  0  0  0  0  0  0  0
   28.0543   19.4637   16.0850 H   0  0  0  0  0  0  0  0  0  0  0  0
   27.2703   18.9334   18.3615 H   0  0  0  0  0  0  0  0  0  0  0  0
   26.4752   16.6573   18.8856 H   0  0  0  0  0  0  0  0  0  0  0  0
  1  5  1  0  0  0  0
  1  6  2  0  0  0  0
  2  1  1  0  0  0  0
  2  3  1  0  0  0  0
  2  7  1  6  0  0  0
  3  4  1  0  0  0  0
  3 34  1  0  0  0  0
  4  5  1  0  0  0  0
  4 21  1  6  0  0  0
  5 25  1  0  0  0  0
  7  9  1  0  0  0  0
  7 35  1  0  0  0  0
  7 36  1  0  0  0  0
  8 11  1  0  0  0  0
  8 15  1  0  0  0  0
  8 24  1  0  0  0  0
  8 37  1  1  0  0  0
  9 10  1  0  0  0  0
  9 38  1  0  0  0  0
  9 39  1  0  0  0  0
 10 16  1  0  0  0  0
 10 20  1  0  0  0  0
 10 40  1  0  0  0  0
 11 12  1  0  0  0  0
 11 41  1  0  0  0  0
 11 42  1  0  0  0  0
 12 13  1  0  0  0  0
 12 22  1  0  0  0  0
 12 43  1  1  0  0  0
 13 14  1  0  0  0  0
 13 44  1  0  0  0  0
 13 45  1  0  0  0  0
 14 15  1  0  0  0  0
 14 46  1  0  0  0  0
 14 47  1  0  0  0  0
 15 48  1  0  0  0  0
 15 49  1  0  0  0  0
 16 17  1  0  0  0  0
 16 50  1  0  0  0  0
 16 51  1  0  0  0  0
 17 18  1  0  0  0  0
 17 52  1  0  0  0  0
 17 53  1  0  0  0  0
 18 19  1  0  0  0  0
 18 54  1  0  0  0  0
 18 55  1  0  0  0  0
 19 20  1  0  0  0  0
 19 56  1  0  0  0  0
 19 57  1  0  0  0  0
 20 58  1  0  0  0  0
 20 59  1  0  0  0  0
 21 60  1  0  0  0  0
 21 61  1  0  0  0  0
 22 23  1  0  0  0  0
 22 62  1  0  0  0  0
 23 26  2  0  0  0  0
 23 27  1  0  0  0  0
 24  2  1  0  0  0  0
 24 63  1  0  0  0  0
 24 64  1  0  0  0  0
 25 65  1  0  0  0  0
 25 66  1  0  0  0  0
 25 67  1  0  0  0  0
 27 28  1  0  0  0  0
 27 68  1  0  0  0  0
 28 29  2  0  0  0  0
 28 33  1  0  0  0  0
 29 30  1  0  0  0  0
 29 69  1  0  0  0  0
 30 31  2  0  0  0  0
 30 70  1  0  0  0  0
 31 32  1  0  0  0  0
 31 71  1  0  0  0  0
 32 33  2  0  0  0  0
 32 72  1  0  0  0  0
 33 73  1  0  0  0  0
M  END
