4ra5_ligand
 OpenBabel08222323353D

 58 62  0  0  1  0  0  0  0  0999 V2000
  -29.5390    5.5930  -25.8710 C   0  0  0  0  0  0  0  0  0  0  0  0
  -29.5360    4.3180  -26.6150 N   0  3  2  0  0  0  0  0  0  0  0  0
  -28.8880    3.2180  -25.8720 C   0  0  0  0  0  0  0  0  0  0  0  0
  -28.0950    2.8380  -27.1380 C   0  0  1  0  0  0  0  0  0  0  0  0
  -28.7400    1.7450  -28.0040 C   0  0  0  0  0  0  0  0  0  0  0  0
  -28.4380    4.2650  -27.6070 C   0  0  0  0  0  0  0  0  0  0  0  0
  -26.6890    2.5170  -26.8550 N   0  0  0  0  0  0  0  0  0  0  0  0
  -26.3710    1.5110  -25.8340 C   0  0  0  0  0  0  0  0  0  0  0  0
  -25.6530    3.0610  -27.6180 C   0  0  0  0  0  0  0  0  0  0  0  0
  -25.2670    2.2590  -28.6740 C   0  0  0  0  0  0  0  0  0  0  0  0
  -24.2610    2.6510  -29.5510 C   0  0  0  0  0  0  0  0  0  0  0  0
  -23.8190    1.8390  -30.6140 N   0  0  0  0  0  0  0  0  0  0  0  0
  -24.0020    0.3650  -30.5590 C   0  0  2  0  0  0  0  0  0  0  0  0
  -23.1860   -0.2460  -29.4050 C   0  0  0  0  0  0  0  0  0  0  0  0
  -23.6120   -0.3040  -31.8490 C   0  0  0  0  0  0  0  0  0  0  0  0
  -23.8650   -1.4810  -31.9960 O   0  0  0  0  0  0  0  0  0  0  0  0
  -22.9950    0.4050  -32.8180 N   0  0  0  0  0  0  0  0  0  0  0  0
  -22.7000    1.7690  -32.6760 N   0  0  0  0  0  0  0  0  0  0  0  0
  -23.1040    2.4410  -31.6530 C   0  0  0  0  0  0  0  0  0  0  0  0
  -22.7590    3.9060  -31.5500 C   0  0  0  0  0  0  0  0  0  0  0  0
  -22.6270    4.2720  -30.1800 O   0  0  0  0  0  0  0  0  0  0  0  0
  -23.6130    3.8770  -29.3380 C   0  0  0  0  0  0  0  0  0  0  0  0
  -23.9860    4.6900  -28.2770 C   0  0  0  0  0  0  0  0  0  0  0  0
  -25.0060    4.3030  -27.4030 C   0  0  0  0  0  0  0  0  0  0  0  0
  -25.3310    5.2390  -26.2940 C   0  0  0  0  0  0  0  0  0  0  0  0
  -25.6300    6.5830  -26.5560 C   0  0  0  0  0  0  0  0  0  0  0  0
  -25.9150    7.4450  -25.5070 C   0  0  0  0  0  0  0  0  0  0  0  0
  -25.8930    6.9860  -24.1930 C   0  0  0  0  0  0  0  0  0  0  0  0
  -25.5860    5.6610  -23.9270 C   0  0  0  0  0  0  0  0  0  0  0  0
  -25.3030    4.7880  -24.9670 C   0  0  0  0  0  0  0  0  0  0  0  0
  -30.3667    5.5928  -25.1465 H   0  0  0  0  0  0  0  0  0  0  0  0
  -29.6683    6.4281  -26.5751 H   0  0  0  0  0  0  0  0  0  0  0  0
  -28.5843    5.7081  -25.3369 H   0  0  0  0  0  0  0  0  0  0  0  0
  -30.4548    4.1103  -26.9737 H   0  0  0  0  0  0  0  0  0  0  0  0
  -29.5826    2.4387  -25.5254 H   0  0  0  0  0  0  0  0  0  0  0  0
  -28.2612    3.5507  -25.0315 H   0  0  0  0  0  0  0  0  0  0  0  0
  -28.1024    1.5459  -28.8780 H   0  0  0  0  0  0  0  0  0  0  0  0
  -29.7309    2.0823  -28.3422 H   0  0  0  0  0  0  0  0  0  0  0  0
  -28.8484    0.8243  -27.4119 H   0  0  0  0  0  0  0  0  0  0  0  0
  -27.6385    5.0004  -27.4336 H   0  0  0  0  0  0  0  0  0  0  0  0
  -28.7727    4.3270  -28.6530 H   0  0  0  0  0  0  0  0  0  0  0  0
  -25.2794    1.4001  -25.7561 H   0  0  0  0  0  0  0  0  0  0  0  0
  -26.8182    0.5468  -26.1174 H   0  0  0  0  0  0  0  0  0  0  0  0
  -26.7771    1.8324  -24.8635 H   0  0  0  0  0  0  0  0  0  0  0  0
  -25.7582    1.3042  -28.8225 H   0  0  0  0  0  0  0  0  0  0  0  0
  -25.0679    0.1638  -30.3764 H   0  0  0  0  0  0  0  0  0  0  0  0
  -23.3377   -1.3353  -29.3853 H   0  0  0  0  0  0  0  0  0  0  0  0
  -23.5189    0.1879  -28.4506 H   0  0  0  0  0  0  0  0  0  0  0  0
  -22.1184   -0.0272  -29.5547 H   0  0  0  0  0  0  0  0  0  0  0  0
  -22.7394   -0.0583  -33.6665 H   0  0  0  0  0  0  0  0  0  0  0  0
  -23.5582    4.5035  -32.0128 H   0  0  0  0  0  0  0  0  0  0  0  0
  -21.8098    4.0959  -32.0724 H   0  0  0  0  0  0  0  0  0  0  0  0
  -23.4803    5.6366  -28.1241 H   0  0  0  0  0  0  0  0  0  0  0  0
  -25.6386    6.9483  -27.5766 H   0  0  0  0  0  0  0  0  0  0  0  0
  -26.1562    8.4818  -25.7117 H   0  0  0  0  0  0  0  0  0  0  0  0
  -26.1160    7.6649  -23.3779 H   0  0  0  0  0  0  0  0  0  0  0  0
  -25.5670    5.3058  -22.9030 H   0  0  0  0  0  0  0  0  0  0  0  0
  -25.0594    3.7536  -24.7530 H   0  0  0  0  0  0  0  0  0  0  0  0
  1  2  1  0  0  0  0
  1 31  1  0  0  0  0
  1 32  1  0  0  0  0
  1 33  1  0  0  0  0
  2  3  1  0  0  0  0
  2  6  1  0  0  0  0
  2 34  1  6  0  0  0
  3  4  1  0  0  0  0
  3 35  1  0  0  0  0
  3 36  1  0  0  0  0
  4  5  1  6  0  0  0
  4  6  1  0  0  0  0
  4  7  1  0  0  0  0
  5 37  1  0  0  0  0
  5 38  1  0  0  0  0
  5 39  1  0  0  0  0
  6 40  1  0  0  0  0
  6 41  1  0  0  0  0
  7  8  1  0  0  0  0
  7  9  1  0  0  0  0
  8 42  1  0  0  0  0
  8 43  1  0  0  0  0
  8 44  1  0  0  0  0
  9 10  2  0  0  0  0
  9 24  1  0  0  0  0
 10 11  1  0  0  0  0
 10 45  1  0  0  0  0
 11 12  1  0  0  0  0
 11 22  2  0  0  0  0
 12 13  1  0  0  0  0
 12 19  1  0  0  0  0
 13 14  1  0  0  0  0
 13 15  1  0  0  0  0
 13 46  1  1  0  0  0
 14 47  1  0  0  0  0
 14 48  1  0  0  0  0
 14 49  1  0  0  0  0
 15 16  2  0  0  0  0
 15 17  1  0  0  0  0
 17 18  1  0  0  0  0
 17 50  1  0  0  0  0
 18 19  2  0  0  0  0
 19 20  1  0  0  0  0
 20 21  1  0  0  0  0
 20 51  1  0  0  0  0
 20 52  1  0  0  0  0
 21 22  1  0  0  0  0
 22 23  1  0  0  0  0
 23 24  2  0  0  0  0
 23 53  1  0  0  0  0
 24 25  1  0  0  0  0
 25 26  2  0  0  0  0
 25 30  1  0  0  0  0
 26 27  1  0  0  0  0
 26 54  1  0  0  0  0
 27 28  2  0  0  0  0
 27 55  1  0  0  0  0
 28 29  1  0  0  0  0
 28 56  1  0  0  0  0
 29 30  2  0  0  0  0
 29 57  1  0  0  0  0
 30 58  1  0  0  0  0
M  CHG  1   2   1
M  END
