4rad_ligand
 OpenBabel08222323353D

 50 51  0  0  1  0  0  0  0  0999 V2000
   69.0770  -17.5270   12.7480 O   0  0  0  0  0  1  0  0  0  0  0  0
   67.8380  -16.7320   13.0860 P   0  0  0  0  0  0  0  0  0  0  0  0
   68.2390  -15.4680   13.8200 O   0  0  0  0  0  1  0  0  0  0  0  0
   66.9470  -17.5670   13.9790 O   0  0  0  0  0  0  0  0  0  0  0  0
   66.9210  -16.2900   11.5570 C   0  0  0  0  0  0  0  0  0  0  0  0
   67.8030  -16.3330   10.3010 C   0  0  0  0  0  0  0  0  0  0  0  0
   67.3120  -17.3480    9.3970 O   0  0  0  0  0  0  0  0  0  0  0  0
   68.3410  -17.8100    8.4930 C   0  0  0  0  0  0  0  0  0  0  0  0
   67.7490  -18.3470    7.1830 C   0  0  0  0  0  0  0  0  0  0  0  0
   66.5720  -19.1670    7.4180 N   0  3  1  0  0  0  0  0  0  0  0  0
   65.5300  -18.8990    6.4320 C   0  0  0  0  0  0  0  0  0  0  0  0
   65.9130  -19.2820    4.9960 C   0  0  0  0  0  0  0  0  0  0  0  0
   64.5370  -18.9240    3.8040 P   0  0  0  0  0  0  0  0  0  0  0  0
   64.1580  -17.4590    3.8830 O   0  0  0  0  0  1  0  0  0  0  0  0
   63.3390  -19.7780    4.1680 O   0  0  0  0  0  1  0  0  0  0  0  0
   64.9740  -19.2640    2.3840 O   0  0  0  0  0  0  0  0  0  0  0  0
   66.9510  -20.6000    7.5320 C   0  0  0  0  0  0  0  0  0  0  0  0
   65.8360  -21.4440    8.2180 C   0  0  0  0  0  0  0  0  0  0  0  0
   66.0750  -22.8630    7.8920 N   0  0  0  0  0  0  0  0  0  0  0  0
   67.0330  -23.6320    8.4710 C   0  0  0  0  0  0  0  0  0  0  0  0
   67.9710  -23.4440    9.4150 N   0  0  0  0  0  0  0  0  0  0  0  0
   68.7910  -24.4330    9.7850 C   0  0  0  0  0  0  0  0  0  0  0  0
   69.7680  -24.1840   10.7940 N   0  0  0  0  0  0  0  0  0  0  0  0
   68.7300  -25.6580    9.2430 N   0  0  0  0  0  0  0  0  0  0  0  0
   67.8360  -25.9460    8.2950 C   0  0  0  0  0  0  0  0  0  0  0  0
   67.7740  -27.2500    7.7190 O   0  0  0  0  0  0  0  0  0  0  0  0
   66.9390  -24.9170    7.8710 C   0  0  0  0  0  0  0  0  0  0  0  0
   65.9210  -24.8420    6.9550 N   0  0  0  0  0  0  0  0  0  0  0  0
   65.4110  -23.6050    6.9680 C   0  0  0  0  0  0  0  0  0  0  0  0
   66.5195  -15.2721   11.6698 H   0  0  0  0  0  0  0  0  0  0  0  0
   66.0905  -16.9996   11.4277 H   0  0  0  0  0  0  0  0  0  0  0  0
   68.8381  -16.5691   10.5887 H   0  0  0  0  0  0  0  0  0  0  0  0
   67.7757  -15.3536    9.8010 H   0  0  0  0  0  0  0  0  0  0  0  0
   68.9103  -18.6140    8.9824 H   0  0  0  0  0  0  0  0  0  0  0  0
   69.0148  -16.9717    8.2620 H   0  0  0  0  0  0  0  0  0  0  0  0
   68.5098  -18.9548    6.6713 H   0  0  0  0  0  0  0  0  0  0  0  0
   67.4685  -17.4966    6.5442 H   0  0  0  0  0  0  0  0  0  0  0  0
   66.1944  -18.8966    8.3126 H   0  0  0  0  0  0  0  0  0  0  0  0
   65.3025  -17.8230    6.4535 H   0  0  0  0  0  0  0  0  0  0  0  0
   64.6326  -19.4693    6.7139 H   0  0  0  0  0  0  0  0  0  0  0  0
   66.1436  -20.3570    4.9626 H   0  0  0  0  0  0  0  0  0  0  0  0
   66.8021  -18.7068    4.6981 H   0  0  0  0  0  0  0  0  0  0  0  0
   67.8726  -20.6776    8.1275 H   0  0  0  0  0  0  0  0  0  0  0  0
   67.1310  -21.0014    6.5238 H   0  0  0  0  0  0  0  0  0  0  0  0
   64.8493  -21.1354    7.8422 H   0  0  0  0  0  0  0  0  0  0  0  0
   65.8750  -21.2994    9.3077 H   0  0  0  0  0  0  0  0  0  0  0  0
   69.8357  -23.2516   11.2264 H   0  0  0  0  0  0  0  0  0  0  0  0
   70.4058  -24.9366   11.0902 H   0  0  0  0  0  0  0  0  0  0  0  0
   69.3639  -26.3663    9.5538 H   0  0  0  0  0  0  0  0  0  0  0  0
   64.5955  -23.2504    6.3394 H   0  0  0  0  0  0  0  0  0  0  0  0
  1  2  1  0  0  0  0
  2  3  1  0  0  0  0
  2  4  2  0  0  0  0
  2  5  1  0  0  0  0
  5  6  1  0  0  0  0
  5 30  1  0  0  0  0
  5 31  1  0  0  0  0
  6  7  1  0  0  0  0
  6 32  1  0  0  0  0
  6 33  1  0  0  0  0
  7  8  1  0  0  0  0
  8  9  1  0  0  0  0
  8 34  1  0  0  0  0
  8 35  1  0  0  0  0
  9 10  1  0  0  0  0
  9 36  1  0  0  0  0
  9 37  1  0  0  0  0
 10 11  1  0  0  0  0
 10 17  1  0  0  0  0
 10 38  1  1  0  0  0
 11 12  1  0  0  0  0
 11 39  1  0  0  0  0
 11 40  1  0  0  0  0
 12 13  1  0  0  0  0
 12 41  1  0  0  0  0
 12 42  1  0  0  0  0
 13 14  1  0  0  0  0
 13 15  1  0  0  0  0
 13 16  2  0  0  0  0
 17 18  1  0  0  0  0
 17 43  1  0  0  0  0
 17 44  1  0  0  0  0
 18 19  1  0  0  0  0
 18 45  1  0  0  0  0
 18 46  1  0  0  0  0
 19 20  1  0  0  0  0
 19 29  1  0  0  0  0
 20 21  1  0  0  0  0
 20 27  2  0  0  0  0
 21 22  2  0  0  0  0
 22 23  1  0  0  0  0
 22 24  1  0  0  0  0
 23 47  1  0  0  0  0
 23 48  1  0  0  0  0
 24 25  1  0  0  0  0
 24 49  1  0  0  0  0
 25 26  2  0  0  0  0
 25 27  1  0  0  0  0
 27 28  1  0  0  0  0
 28 29  2  0  0  0  0
 29 50  1  0  0  0  0
M  CHG  1  10   1
M  END
