4rcf_ligand
 OpenBabel08222323353D

 53 58  0  0  1  0  0  0  0  0999 V2000
   71.0140   50.1410    8.7930 C   0  0  0  0  0  0  0  0  0  0  0  0
   72.5180   47.5700    5.8060 C   0  0  0  0  0  0  0  0  0  0  0  0
   70.1530   49.2550    8.1230 C   0  0  0  0  0  0  0  0  0  0  0  0
   70.6730   48.4280    7.1340 C   0  0  0  0  0  0  0  0  0  0  0  0
   67.5620   52.1430   11.4300 C   0  0  0  0  0  0  0  0  0  0  0  0
   69.2600   51.0800   10.0780 C   0  0  0  0  0  0  0  0  0  0  0  0
   68.2830   50.2330    9.5330 C   0  0  0  0  0  0  0  0  0  0  0  0
   68.6620   49.1920    8.4850 C   0  0  1  0  0  0  0  0  0  0  0  0
   68.8870   52.0140   11.0230 C   0  0  0  0  0  0  0  0  0  0  0  0
   66.5770   51.3080   10.9060 C   0  0  0  0  0  0  0  0  0  0  0  0
   66.9530   50.3550    9.9510 C   0  0  0  0  0  0  0  0  0  0  0  0
   67.7980   49.4210    7.3010 N   0  0  0  0  0  0  0  0  0  0  0  0
   66.2710   48.2230    6.0020 N   0  0  0  0  0  0  0  0  0  0  0  0
   72.3620   50.1580    8.4560 C   0  0  0  0  0  0  0  0  0  0  0  0
   72.4760   46.6580    3.5840 N   0  0  0  0  0  0  0  0  0  0  0  0
   64.1520   50.4260   11.0730 C   0  0  0  0  0  0  0  0  0  0  0  0
   62.7560   51.0580   11.0830 C   0  0  0  0  0  0  0  0  0  0  0  0
   62.5540   51.7630   12.3070 O   0  0  0  0  0  0  0  0  0  0  0  0
   63.5340   52.8020   12.4360 C   0  0  0  0  0  0  0  0  0  0  0  0
   64.8640   52.6220   12.0090 C   0  0  0  0  0  0  0  0  0  0  0  0
   65.2440   51.4560   11.3230 C   0  0  2  0  0  0  0  0  0  0  0  0
   69.8330   52.8130   11.5540 F   0  0  0  0  0  0  0  0  0  0  0  0
   70.5800   51.0080    9.7510 O   0  0  0  0  0  0  0  0  0  0  0  0
   68.2460   47.7730    8.9180 C   0  0  0  0  0  0  0  0  0  0  0  0
   67.4420   47.2470    7.8130 O   0  0  0  0  0  0  0  0  0  0  0  0
   67.1370   48.3170    7.0060 C   0  0  1  0  0  3  0  0  0  0  0  0
   72.8680   49.3170    7.4700 C   0  0  0  0  0  0  0  0  0  0  0  0
   72.0230   48.4370    6.7890 C   0  0  0  0  0  0  0  0  0  0  0  0
   73.5250   46.6610    6.1290 C   0  0  0  0  0  0  0  0  0  0  0  0
   73.9880   45.7910    5.1480 C   0  0  0  0  0  0  0  0  0  0  0  0
   73.4400   45.8120    3.8690 C   0  0  0  0  0  0  0  0  0  0  0  0
   72.0090   47.5210    4.4980 C   0  0  0  0  0  0  0  0  0  0  0  0
   71.0430   48.3690    4.1260 F   0  0  0  0  0  0  0  0  0  0  0  0
   70.0046   47.7522    6.6128 H   0  0  0  0  0  0  0  0  0  0  0  0
   67.2945   52.8985   12.1599 H   0  0  0  0  0  0  0  0  0  0  0  0
   66.2001   49.6999    9.5279 H   0  0  0  0  0  0  0  0  0  0  0  0
   67.7247   50.3097    6.7855 H   0  0  0  0  0  0  0  0  0  0  0  0
   65.7858   47.3324    5.8221 H   0  0  0  0  0  0  0  0  0  0  0  0
   66.0851   49.0407    5.4039 H   0  0  0  0  0  0  0  0  0  0  0  0
   73.0310   50.8384    8.9704 H   0  0  0  0  0  0  0  0  0  0  0  0
   64.3231   49.9575   10.0926 H   0  0  0  0  0  0  0  0  0  0  0  0
   64.2004   49.6586   11.8596 H   0  0  0  0  0  0  0  0  0  0  0  0
   61.9966   50.2680   10.9869 H   0  0  0  0  0  0  0  0  0  0  0  0
   62.6658   51.7579   10.2392 H   0  0  0  0  0  0  0  0  0  0  0  0
   63.2423   53.7547   12.8755 H   0  0  0  0  0  0  0  0  0  0  0  0
   65.6049   53.3938   12.2124 H   0  0  0  0  0  0  0  0  0  0  0  0
   65.4963   50.9579   12.2707 H   0  0  0  0  0  0  0  0  0  0  0  0
   67.6506   47.8120    9.8421 H   0  0  0  0  0  0  0  0  0  0  0  0
   69.1341   47.1446    9.0803 H   0  0  0  0  0  0  0  0  0  0  0  0
   73.9244   49.3446    7.2286 H   0  0  0  0  0  0  0  0  0  0  0  0
   73.9406   46.6330    7.1298 H   0  0  0  0  0  0  0  0  0  0  0  0
   74.7820   45.0909    5.3814 H   0  0  0  0  0  0  0  0  0  0  0  0
   73.8077   45.1317    3.1094 H   0  0  0  0  0  0  0  0  0  0  0  0
  1 14  1  0  0  0  0
  2 29  2  0  0  0  0
  2 32  1  0  0  0  0
  3  1  2  0  0  0  0
  3  4  1  0  0  0  0
  4 28  2  0  0  0  0
  4 34  1  0  0  0  0
  5  9  2  0  0  0  0
  5 35  1  0  0  0  0
  6 23  1  0  0  0  0
  7  6  2  0  0  0  0
  7  8  1  0  0  0  0
  8  3  1  6  0  0  0
  8 12  1  0  0  0  0
  8 24  1  0  0  0  0
  9  6  1  0  0  0  0
  9 22  1  0  0  0  0
 10  5  1  0  0  0  0
 10 11  2  0  0  0  0
 11  7  1  0  0  0  0
 11 36  1  0  0  0  0
 12 26  1  0  0  0  0
 12 37  1  0  0  0  0
 13 38  1  0  0  0  0
 13 39  1  0  0  0  0
 14 27  2  0  0  0  0
 14 40  1  0  0  0  0
 15 31  1  0  0  0  0
 16 17  1  0  0  0  0
 16 21  1  0  0  0  0
 16 41  1  0  0  0  0
 16 42  1  0  0  0  0
 17 18  1  0  0  0  0
 17 43  1  0  0  0  0
 17 44  1  0  0  0  0
 18 19  1  0  0  0  0
 19 20  2  0  0  0  0
 19 45  1  0  0  0  0
 20 21  1  0  0  0  0
 20 46  1  0  0  0  0
 21 10  1  0  0  0  0
 21 47  1  1  0  0  0
 23  1  1  0  0  0  0
 24 25  1  0  0  0  0
 24 48  1  0  0  0  0
 24 49  1  0  0  0  0
 25 26  1  0  0  0  0
 26 13  1  6  0  0  0
 27 28  1  0  0  0  0
 27 50  1  0  0  0  0
 28  2  1  0  0  0  0
 29 30  1  0  0  0  0
 29 51  1  0  0  0  0
 30 31  2  0  0  0  0
 30 52  1  0  0  0  0
 31 53  1  0  0  0  0
 32 15  2  0  0  0  0
 32 33  1  0  0  0  0
M  END
