4rcp_ligand
 OpenBabel08222323353D

 88 89  0  0  1  0  0  0  0  0999 V2000
   -7.5270   -5.8400   17.2710 C   0  0  0  0  0  0  0  0  0  0  0  0
   -7.4560   -5.4200   16.1180 O   0  0  0  0  0  0  0  0  0  0  0  0
   -8.0310   -7.2280   17.5660 C   0  0  0  0  0  0  0  0  0  0  0  0
   -5.6910   -3.3950   19.2810 C   0  0  0  0  0  0  0  0  0  0  0  0
   -7.1650   -5.0940   18.3210 N   0  0  0  0  0  0  0  0  0  0  0  0
   -5.7280   -4.0400   20.3240 O   0  0  0  0  0  0  0  0  0  0  0  0
   -6.5370   -3.7930   18.0840 C   0  0  1  0  0  0  0  0  0  0  0  0
   -7.5370   -2.6460   17.7690 C   0  0  0  0  0  0  0  0  0  0  0  0
   -8.6630   -2.6100   18.7400 C   0  0  0  0  0  0  0  0  0  0  0  0
  -10.4670   -2.9280   16.9660 C   0  0  0  0  0  0  0  0  0  0  0  0
  -11.9400   -3.2860   16.8890 C   0  0  0  0  0  0  0  0  0  0  0  0
  -12.4080   -3.5810   15.4770 C   0  0  0  0  0  0  0  0  0  0  0  0
  -12.4340   -2.3930   14.5380 C   0  0  0  0  0  0  0  0  0  0  0  0
  -12.9530   -2.7650   13.1550 C   0  0  0  0  0  0  0  0  0  0  0  0
  -13.1080   -1.6010   12.1720 C   0  0  0  0  0  0  0  0  0  0  0  0
  -11.8130   -0.8720   11.8310 C   0  0  0  0  0  0  0  0  0  0  0  0
  -11.9950    0.1880   10.7400 C   0  0  0  0  0  0  0  0  0  0  0  0
  -12.3990   -0.3860    9.4000 C   0  0  0  0  0  0  0  0  0  0  0  0
  -11.4410   -0.8510    8.5090 C   0  0  0  0  0  0  0  0  0  0  0  0
  -11.8080   -1.3980    7.2910 C   0  0  0  0  0  0  0  0  0  0  0  0
  -13.1380   -1.4880    6.9440 C   0  0  0  0  0  0  0  0  0  0  0  0
  -14.1000   -1.0060    7.8070 C   0  0  0  0  0  0  0  0  0  0  0  0
  -13.7330   -0.4650    9.0290 C   0  0  0  0  0  0  0  0  0  0  0  0
  -10.0030   -2.7520   18.3550 N   0  0  0  0  0  0  0  0  0  0  0  0
   -8.7050   -2.4470   20.0960 C   0  0  0  0  0  0  0  0  0  0  0  0
  -10.7470   -2.6870   19.4900 C   0  0  0  0  0  0  0  0  0  0  0  0
  -10.0110   -2.3810   20.5390 N   0  0  0  0  0  0  0  0  0  0  0  0
   -4.9210   -2.3260   19.1210 N   0  0  0  0  0  0  0  0  0  0  0  0
   -4.0500   -1.8510   20.1820 C   0  0  2  0  0  0  0  0  0  0  0  0
   -4.8720   -1.2170   21.2970 C   0  0  0  0  0  0  0  0  0  0  0  0
   -6.0990   -1.1440   21.2180 O   0  0  0  0  0  0  0  0  0  0  0  0
   -3.0440   -0.8370   19.6220 C   0  0  0  0  0  0  0  0  0  0  0  0
   -3.6990    0.2720   19.0220 O   0  0  0  0  0  0  0  0  0  0  0  0
   -4.1990   -0.7460   22.3550 N   0  0  0  0  0  0  0  0  0  0  0  0
   -4.8950   -0.4640   23.6010 C   0  0  1  0  0  0  0  0  0  0  0  0
   -3.9300   -0.1100   24.7500 C   0  0  1  0  0  0  0  0  0  0  0  0
   -4.6540    0.0600   26.0660 C   0  0  0  0  0  0  0  0  0  0  0  0
   -3.0320   -1.2330   24.8140 O   0  0  0  0  0  0  0  0  0  0  0  0
   -1.4630   -1.1260   24.4670 P   0  0  0  0  0  0  0  0  0  0  0  0
   -0.7940   -0.0050   25.1910 O   0  0  0  0  0  1  0  0  0  0  0  0
   -0.9540   -2.5090   24.8340 O   0  0  0  0  0  1  0  0  0  0  0  0
   -1.4560   -0.9180   22.9580 O   0  0  0  0  0  0  0  0  0  0  0  0
   -5.7690    0.7600   23.3740 C   0  0  0  0  0  0  0  0  0  0  0  0
   -5.3440    1.7620   22.8460 O   0  0  0  0  0  0  0  0  0  0  0  0
   -7.0280    0.6720   23.7910 N   0  0  0  0  0  0  0  0  0  0  0  0
   -8.0135   -7.4013   18.6521 H   0  0  0  0  0  0  0  0  0  0  0  0
   -7.3862   -7.9661   17.0666 H   0  0  0  0  0  0  0  0  0  0  0  0
   -9.0614   -7.3305   17.1949 H   0  0  0  0  0  0  0  0  0  0  0  0
   -7.3210   -5.4201   19.2534 H   0  0  0  0  0  0  0  0  0  0  0  0
   -5.8747   -3.9035   17.2127 H   0  0  0  0  0  0  0  0  0  0  0  0
   -7.9438   -2.7964   16.7581 H   0  0  0  0  0  0  0  0  0  0  0  0
   -7.0015   -1.6860   17.8097 H   0  0  0  0  0  0  0  0  0  0  0  0
  -10.3025   -1.9891   16.4170 H   0  0  0  0  0  0  0  0  0  0  0  0
   -9.8826   -3.7338   16.4978 H   0  0  0  0  0  0  0  0  0  0  0  0
  -12.5262   -2.4427   17.2830 H   0  0  0  0  0  0  0  0  0  0  0  0
  -12.1166   -4.1769   17.5095 H   0  0  0  0  0  0  0  0  0  0  0  0
  -13.4279   -3.9888   15.5361 H   0  0  0  0  0  0  0  0  0  0  0  0
  -11.7348   -4.3377   15.0478 H   0  0  0  0  0  0  0  0  0  0  0  0
  -11.4124   -1.9974   14.4385 H   0  0  0  0  0  0  0  0  0  0  0  0
  -13.0874   -1.6179   14.9650 H   0  0  0  0  0  0  0  0  0  0  0  0
  -13.9388   -3.2369   13.2790 H   0  0  0  0  0  0  0  0  0  0  0  0
  -12.2525   -3.4894   12.7141 H   0  0  0  0  0  0  0  0  0  0  0  0
  -13.8045   -0.8723   12.6123 H   0  0  0  0  0  0  0  0  0  0  0  0
  -13.5334   -1.9968   11.2380 H   0  0  0  0  0  0  0  0  0  0  0  0
  -11.0756   -1.6105   11.4833 H   0  0  0  0  0  0  0  0  0  0  0  0
  -11.4378   -0.3792   12.7400 H   0  0  0  0  0  0  0  0  0  0  0  0
  -11.0436    0.7259   10.6154 H   0  0  0  0  0  0  0  0  0  0  0  0
  -12.7745    0.8924   11.0659 H   0  0  0  0  0  0  0  0  0  0  0  0
  -10.3911   -0.7849    8.7705 H   0  0  0  0  0  0  0  0  0  0  0  0
  -11.0461   -1.7566    6.6083 H   0  0  0  0  0  0  0  0  0  0  0  0
  -13.4266   -1.9345    5.9993 H   0  0  0  0  0  0  0  0  0  0  0  0
  -15.1467   -1.0505    7.5285 H   0  0  0  0  0  0  0  0  0  0  0  0
  -14.4985   -0.0989    9.7036 H   0  0  0  0  0  0  0  0  0  0  0  0
   -7.8287   -2.3786   20.7390 H   0  0  0  0  0  0  0  0  0  0  0  0
  -11.8205   -2.8660   19.5280 H   0  0  0  0  0  0  0  0  0  0  0  0
   -4.9409   -1.8360   18.2495 H   0  0  0  0  0  0  0  0  0  0  0  0
   -3.4965   -2.7072   20.5949 H   0  0  0  0  0  0  0  0  0  0  0  0
   -2.4190   -1.3344   18.8658 H   0  0  0  0  0  0  0  0  0  0  0  0
   -2.4078   -0.4746   20.4429 H   0  0  0  0  0  0  0  0  0  0  0  0
   -4.2372    0.7096   19.6711 H   0  0  0  0  0  0  0  0  0  0  0  0
   -3.2139   -0.5875   22.2881 H   0  0  0  0  0  0  0  0  0  0  0  0
   -5.5075   -1.3325   23.8848 H   0  0  0  0  0  0  0  0  0  0  0  0
   -3.3810    0.8145   24.5180 H   0  0  0  0  0  0  0  0  0  0  0  0
   -3.9285    0.3109   26.8538 H   0  0  0  0  0  0  0  0  0  0  0  0
   -5.1677   -0.8774   26.3257 H   0  0  0  0  0  0  0  0  0  0  0  0
   -5.3926    0.8702   25.9762 H   0  0  0  0  0  0  0  0  0  0  0  0
   -7.6503    1.4452   23.6689 H   0  0  0  0  0  0  0  0  0  0  0  0
   -7.3529   -0.1674   24.2268 H   0  0  0  0  0  0  0  0  0  0  0  0
  1  2  2  0  0  0  0
  1  3  1  0  0  0  0
  3 46  1  0  0  0  0
  3 47  1  0  0  0  0
  3 48  1  0  0  0  0
  4  6  2  0  0  0  0
  4 28  1  0  0  0  0
  5  1  1  0  0  0  0
  5 49  1  0  0  0  0
  7  4  1  0  0  0  0
  7  5  1  0  0  0  0
  7 50  1  6  0  0  0
  8  7  1  0  0  0  0
  8 51  1  0  0  0  0
  8 52  1  0  0  0  0
  9  8  1  0  0  0  0
  9 25  2  0  0  0  0
 10 11  1  0  0  0  0
 10 24  1  0  0  0  0
 10 53  1  0  0  0  0
 10 54  1  0  0  0  0
 11 12  1  0  0  0  0
 11 55  1  0  0  0  0
 11 56  1  0  0  0  0
 12 13  1  0  0  0  0
 12 57  1  0  0  0  0
 12 58  1  0  0  0  0
 13 14  1  0  0  0  0
 13 59  1  0  0  0  0
 13 60  1  0  0  0  0
 14 15  1  0  0  0  0
 14 61  1  0  0  0  0
 14 62  1  0  0  0  0
 15 16  1  0  0  0  0
 15 63  1  0  0  0  0
 15 64  1  0  0  0  0
 16 17  1  0  0  0  0
 16 65  1  0  0  0  0
 16 66  1  0  0  0  0
 17 18  1  0  0  0  0
 17 67  1  0  0  0  0
 17 68  1  0  0  0  0
 18 19  2  0  0  0  0
 18 23  1  0  0  0  0
 19 20  1  0  0  0  0
 19 69  1  0  0  0  0
 20 21  2  0  0  0  0
 20 70  1  0  0  0  0
 21 22  1  0  0  0  0
 21 71  1  0  0  0  0
 22 23  2  0  0  0  0
 22 72  1  0  0  0  0
 23 73  1  0  0  0  0
 24  9  1  0  0  0  0
 24 26  1  0  0  0  0
 25 27  1  0  0  0  0
 25 74  1  0  0  0  0
 26 27  2  0  0  0  0
 26 75  1  0  0  0  0
 28 29  1  0  0  0  0
 28 76  1  0  0  0  0
 29 30  1  0  0  0  0
 29 32  1  0  0  0  0
 29 77  1  1  0  0  0
 30 31  2  0  0  0  0
 30 34  1  0  0  0  0
 32 33  1  0  0  0  0
 32 78  1  0  0  0  0
 32 79  1  0  0  0  0
 33 80  1  0  0  0  0
 34 35  1  0  0  0  0
 34 81  1  0  0  0  0
 35 36  1  0  0  0  0
 35 43  1  0  0  0  0
 35 82  1  1  0  0  0
 36 37  1  0  0  0  0
 36 38  1  0  0  0  0
 36 83  1  6  0  0  0
 37 84  1  0  0  0  0
 37 85  1  0  0  0  0
 37 86  1  0  0  0  0
 38 39  1  0  0  0  0
 39 40  1  0  0  0  0
 39 41  1  0  0  0  0
 39 42  2  0  0  0  0
 43 44  2  0  0  0  0
 43 45  1  0  0  0  0
 45 87  1  0  0  0  0
 45 88  1  0  0  0  0
M  END
