4re3_ligand
 OpenBabel08222323353D

 26 27  0  0  1  0  0  0  0  0999 V2000
    8.3490   13.6630   12.9840 C   0  0  0  0  0  0  0  0  0  0  0  0
    8.1120   12.2010   13.1710 C   0  0  1  0  0  0  0  0  0  0  0  0
    9.1970   14.1970   12.0980 N   0  0  0  0  0  0  0  0  0  0  0  0
    9.0130   11.3970   12.2200 C   0  0  2  0  0  0  0  0  0  0  0  0
    9.2400   12.1150   10.8960 C   0  0  1  0  0  0  0  0  0  0  0  0
   10.0440   13.3850   11.1790 C   0  0  1  0  0  0  0  0  0  0  0  0
   10.4640   14.1910    9.9380 C   0  0  0  0  0  0  0  0  0  0  0  0
    8.2350   15.8410   13.1810 C   0  0  0  0  0  0  0  0  0  0  0  0
    9.1430   15.5330   12.2020 C   0  0  0  0  0  0  0  0  0  0  0  0
    7.7600   14.6760   13.6510 N   0  0  0  0  0  0  0  0  0  0  0  0
    8.4530   10.1010   12.0020 O   0  0  0  0  0  0  0  0  0  0  0  0
    8.3860   11.8260   14.5310 O   0  0  0  0  0  0  0  0  0  0  0  0
    9.9080   11.2670    9.9540 O   0  0  0  0  0  0  0  0  0  0  0  0
    9.3500   14.8710    9.3220 O   0  0  0  0  0  0  0  0  0  0  0  0
    7.0594   11.9775   12.9428 H   0  0  0  0  0  0  0  0  0  0  0  0
    9.9919   11.2717   12.7059 H   0  0  0  0  0  0  0  0  0  0  0  0
    8.2653   12.3985   10.4723 H   0  0  0  0  0  0  0  0  0  0  0  0
   10.9670   13.0972   11.7037 H   0  0  0  0  0  0  0  0  0  0  0  0
   10.9082   13.5032    9.2034 H   0  0  0  0  0  0  0  0  0  0  0  0
   11.2121   14.9391   10.2389 H   0  0  0  0  0  0  0  0  0  0  0  0
    7.9528   16.8387   13.5139 H   0  0  0  0  0  0  0  0  0  0  0  0
    9.7183   16.2460   11.6133 H   0  0  0  0  0  0  0  0  0  0  0  0
    9.0482    9.5854   11.4706 H   0  0  0  0  0  0  0  0  0  0  0  0
    9.2968   12.0073   14.7309 H   0  0  0  0  0  0  0  0  0  0  0  0
   10.0269   11.7358    9.1364 H   0  0  0  0  0  0  0  0  0  0  0  0
    8.7006   14.2323    9.0522 H   0  0  0  0  0  0  0  0  0  0  0  0
  1  2  1  0  0  0  0
  1  3  1  0  0  0  0
  1 10  2  0  0  0  0
  2  4  1  0  0  0  0
  2 12  1  0  0  0  0
  2 15  1  6  0  0  0
  3  6  1  0  0  0  0
  3  9  1  0  0  0  0
  4  5  1  0  0  0  0
  4 11  1  0  0  0  0
  4 16  1  1  0  0  0
  5  6  1  0  0  0  0
  5 13  1  0  0  0  0
  5 17  1  6  0  0  0
  6  7  1  0  0  0  0
  6 18  1  1  0  0  0
  7 14  1  0  0  0  0
  7 19  1  0  0  0  0
  7 20  1  0  0  0  0
  8 10  1  0  0  0  0
  8 21  1  0  0  0  0
  9  8  2  0  0  0  0
  9 22  1  0  0  0  0
 11 23  1  0  0  0  0
 12 24  1  0  0  0  0
 13 25  1  0  0  0  0
 14 26  1  0  0  0  0
M  END
