4ret_ligand
 OpenBabel08222323353D

119126  0  0  1  0  0  0  0  0999 V2000
  -27.8190  -18.9890   72.8590 C   0  0  0  0  0  0  0  0  0  0  0  0
  -29.2820  -18.7080   73.1780 C   0  0  0  0  0  0  0  0  0  0  0  0
  -29.8840  -19.5960   74.2750 C   0  0  2  0  0  0  0  0  0  0  0  0
  -29.4650  -19.1240   75.5640 O   0  0  0  0  0  0  0  0  0  0  0  0
  -29.5410  -21.0540   73.8740 C   0  0  0  0  0  0  0  0  0  0  0  0
  -28.0820  -21.3550   73.5450 C   0  0  1  0  0  0  0  0  0  0  0  0
  -27.8810  -22.8240   73.1390 C   0  0  0  0  0  0  0  0  0  0  0  0
  -28.2790  -23.1690   71.6990 C   0  0  0  0  0  0  0  0  0  0  0  0
  -27.5460  -22.2770   70.6920 C   0  0  2  0  0  0  0  0  0  0  0  0
  -27.8780  -20.8130   71.0170 C   0  0  1  0  0  0  0  0  0  0  0  0
  -27.4640  -20.4470   72.4830 C   0  0  1  0  0  0  0  0  0  0  0  0
  -27.1580  -19.8760   70.0500 C   0  0  0  0  0  0  0  0  0  0  0  0
  -27.3980  -20.1600   68.5710 C   0  0  1  0  0  0  0  0  0  0  0  0
  -26.4730  -19.3950   67.8270 O   0  0  0  0  0  0  0  0  0  0  0  0
  -27.1260  -21.6460   68.1810 C   0  0  1  0  0  0  0  0  0  0  0  0
  -27.8030  -22.6180   69.2140 C   0  0  1  0  0  0  0  0  0  0  0  0
  -27.2410  -23.8670   68.9600 O   0  0  0  0  0  0  0  0  0  0  0  0
  -29.2800  -22.6370   68.7810 C   0  0  0  0  0  0  0  0  0  0  0  0
  -29.3150  -22.1140   67.3340 C   0  0  0  0  0  0  0  0  0  0  0  0
  -27.8820  -21.8690   66.8360 C   0  0  2  0  0  0  0  0  0  0  0  0
  -25.6550  -21.9000   67.9740 C   0  0  0  0  0  0  0  0  0  0  0  0
  -25.9320  -20.5970   72.5930 C   0  0  0  0  0  0  0  0  0  0  0  0
  -29.9490  -17.8190   75.8880 C   0  0  1  0  0  0  0  0  0  0  0  0
  -29.2630  -13.4620   79.0150 C   0  0  2  0  0  0  0  0  0  0  0  0
  -29.0680  -11.4200   84.0440 C   0  0  2  0  0  0  0  0  0  0  0  0
  -27.2490  -22.8210   65.8530 C   0  0  0  0  0  0  0  0  0  0  0  0
  -27.4630  -24.3300   65.8580 C   0  0  0  0  0  0  0  0  0  0  0  0
  -26.7780  -24.8340   64.7220 O   0  0  0  0  0  0  0  0  0  0  0  0
  -26.7780  -22.5280   64.6190 C   0  0  0  0  0  0  0  0  0  0  0  0
  -26.5680  -23.7860   63.8540 C   0  0  0  0  0  0  0  0  0  0  0  0
  -26.2800  -24.0160   62.7120 O   0  0  0  0  0  0  0  0  0  0  0  0
  -30.2700  -17.8210   77.3920 C   0  0  0  0  0  0  0  0  0  0  0  0
  -30.0770  -12.2870   79.5280 C   0  0  0  0  0  0  0  0  0  0  0  0
  -28.5570  -12.4630   85.0800 C   0  0  0  0  0  0  0  0  0  0  0  0
  -30.6810  -16.4180   77.8870 C   0  0  2  0  0  0  0  0  0  0  0  0
  -31.8500  -16.0570   77.2090 O   0  0  0  0  0  0  0  0  0  0  0  0
  -29.2910  -11.5070   80.5660 C   0  0  2  0  0  0  0  0  0  0  0  0
  -28.0650  -11.1270   79.9920 O   0  0  0  0  0  0  0  0  0  0  0  0
  -29.0990  -12.1820   86.4930 C   0  0  2  0  0  0  0  0  0  0  0  0
  -30.4880  -12.3330   86.4490 O   0  0  0  0  0  0  0  0  0  0  0  0
  -29.5900  -15.3630   77.5740 C   0  0  2  0  0  0  0  0  0  0  0  0
  -30.0870  -14.0940   78.0190 O   0  0  0  0  0  0  0  0  0  0  0  0
  -29.0220  -12.4260   81.7980 C   0  0  2  0  0  0  0  0  0  0  0  0
  -28.3720  -11.6500   82.8170 O   0  0  0  0  0  0  0  0  0  0  0  0
  -28.7380  -10.7280   86.8900 C   0  0  2  0  0  0  0  0  0  0  0  0
  -29.4120  -10.4190   88.0830 O   0  0  0  0  0  0  0  0  0  0  0  0
  -29.2500  -15.5320   76.0250 C   0  0  2  0  0  0  0  0  0  0  0  0
  -28.8970  -16.8800   75.7100 O   0  0  0  0  0  0  0  0  0  0  0  0
  -28.2580  -13.6850   81.2270 C   0  0  2  0  0  0  0  0  0  0  0  0
  -29.0440  -14.3040   80.1610 O   0  0  0  0  0  0  0  0  0  0  0  0
  -29.2370   -9.7490   85.7720 C   0  0  2  0  0  0  0  0  0  0  0  0
  -28.7250  -10.1050   84.4920 O   0  0  0  0  0  0  0  0  0  0  0  0
  -28.0380  -14.6680   75.6720 C   0  0  0  0  0  0  0  0  0  0  0  0
  -28.0900  -14.7000   82.3610 C   0  0  0  0  0  0  0  0  0  0  0  0
  -28.7440   -8.3400   86.1410 C   0  0  0  0  0  0  0  0  0  0  0  0
  -27.2255  -18.7180   73.7446 H   0  0  0  0  0  0  0  0  0  0  0  0
  -27.5314  -18.3462   72.0140 H   0  0  0  0  0  0  0  0  0  0  0  0
  -29.8672  -18.8562   72.2585 H   0  0  0  0  0  0  0  0  0  0  0  0
  -29.3664  -17.6601   73.5015 H   0  0  0  0  0  0  0  0  0  0  0  0
  -30.9797  -19.5017   74.2501 H   0  0  0  0  0  0  0  0  0  0  0  0
  -30.1401  -21.3040   72.9860 H   0  0  0  0  0  0  0  0  0  0  0  0
  -29.8344  -21.7062   74.7098 H   0  0  0  0  0  0  0  0  0  0  0  0
  -27.5152  -21.1897   74.4731 H   0  0  0  0  0  0  0  0  0  0  0  0
  -28.4823  -23.4485   73.8161 H   0  0  0  0  0  0  0  0  0  0  0  0
  -26.8157  -23.0680   73.2643 H   0  0  0  0  0  0  0  0  0  0  0  0
  -29.3633  -23.0255   71.5824 H   0  0  0  0  0  0  0  0  0  0  0  0
  -28.0246  -24.2202   71.4986 H   0  0  0  0  0  0  0  0  0  0  0  0
  -26.4681  -22.4193   70.8589 H   0  0  0  0  0  0  0  0  0  0  0  0
  -28.9634  -20.6702   70.9102 H   0  0  0  0  0  0  0  0  0  0  0  0
  -26.0775  -19.9549   70.2407 H   0  0  0  0  0  0  0  0  0  0  0  0
  -27.4931  -18.8492   70.2581 H   0  0  0  0  0  0  0  0  0  0  0  0
  -28.4316  -19.8889   68.3099 H   0  0  0  0  0  0  0  0  0  0  0  0
  -26.6038  -19.5560   66.8999 H   0  0  0  0  0  0  0  0  0  0  0  0
  -26.3005  -23.8215   69.0864 H   0  0  0  0  0  0  0  0  0  0  0  0
  -29.8769  -21.9850   69.4357 H   0  0  0  0  0  0  0  0  0  0  0  0
  -29.6762  -23.6622   68.8247 H   0  0  0  0  0  0  0  0  0  0  0  0
  -29.8800  -21.1708   67.2998 H   0  0  0  0  0  0  0  0  0  0  0  0
  -29.8041  -22.8581   66.6882 H   0  0  0  0  0  0  0  0  0  0  0  0
  -27.8932  -20.9079   66.3011 H   0  0  0  0  0  0  0  0  0  0  0  0
  -25.1190  -21.7433   68.9217 H   0  0  0  0  0  0  0  0  0  0  0  0
  -25.2665  -21.2062   67.2140 H   0  0  0  0  0  0  0  0  0  0  0  0
  -25.5058  -22.9359   67.6353 H   0  0  0  0  0  0  0  0  0  0  0  0
  -25.6114  -20.3457   73.6148 H   0  0  0  0  0  0  0  0  0  0  0  0
  -25.4448  -19.9174   71.8783 H   0  0  0  0  0  0  0  0  0  0  0  0
  -25.6478  -21.6348   72.3644 H   0  0  0  0  0  0  0  0  0  0  0  0
  -30.8287  -17.5573   75.2817 H   0  0  0  0  0  0  0  0  0  0  0  0
  -28.3047  -13.1426   78.5795 H   0  0  0  0  0  0  0  0  0  0  0  0
  -30.1552  -11.5121   83.9042 H   0  0  0  0  0  0  0  0  0  0  0  0
  -28.5359  -24.5626   65.7898 H   0  0  0  0  0  0  0  0  0  0  0  0
  -27.0501  -24.7701   66.7777 H   0  0  0  0  0  0  0  0  0  0  0  0
  -26.5826  -21.5247   64.2434 H   0  0  0  0  0  0  0  0  0  0  0  0
  -29.3784  -18.1483   77.9469 H   0  0  0  0  0  0  0  0  0  0  0  0
  -31.0966  -18.5221   77.5797 H   0  0  0  0  0  0  0  0  0  0  0  0
  -31.0055  -12.6615   79.9836 H   0  0  0  0  0  0  0  0  0  0  0  0
  -30.3234  -11.6227   78.6866 H   0  0  0  0  0  0  0  0  0  0  0  0
  -27.4579  -12.4280   85.1073 H   0  0  0  0  0  0  0  0  0  0  0  0
  -28.8843  -13.4653   84.7665 H   0  0  0  0  0  0  0  0  0  0  0  0
  -30.8628  -16.4471   78.9715 H   0  0  0  0  0  0  0  0  0  0  0  0
  -32.1270  -15.1944   77.4949 H   0  0  0  0  0  0  0  0  0  0  0  0
  -29.8551  -10.6159   80.8786 H   0  0  0  0  0  0  0  0  0  0  0  0
  -27.5574  -10.6364   80.6279 H   0  0  0  0  0  0  0  0  0  0  0  0
  -28.6638  -12.8865   87.2171 H   0  0  0  0  0  0  0  0  0  0  0  0
  -30.8511  -12.1650   87.3106 H   0  0  0  0  0  0  0  0  0  0  0  0
  -28.6766  -15.5826   78.1462 H   0  0  0  0  0  0  0  0  0  0  0  0
  -29.9781  -12.7746   82.2156 H   0  0  0  0  0  0  0  0  0  0  0  0
  -27.6510  -10.6284   87.0257 H   0  0  0  0  0  0  0  0  0  0  0  0
  -30.3487  -10.4976   87.9457 H   0  0  0  0  0  0  0  0  0  0  0  0
  -30.1214  -15.2261   75.4275 H   0  0  0  0  0  0  0  0  0  0  0  0
  -27.2742  -13.3825   80.8389 H   0  0  0  0  0  0  0  0  0  0  0  0
  -30.3363   -9.7643   85.7362 H   0  0  0  0  0  0  0  0  0  0  0  0
  -27.8034  -14.7845   74.6036 H   0  0  0  0  0  0  0  0  0  0  0  0
  -27.1737  -14.9853   76.2739 H   0  0  0  0  0  0  0  0  0  0  0  0
  -28.2654  -13.6130   75.8845 H   0  0  0  0  0  0  0  0  0  0  0  0
  -27.5591  -15.5865   81.9839 H   0  0  0  0  0  0  0  0  0  0  0  0
  -29.0802  -14.9978   82.7363 H   0  0  0  0  0  0  0  0  0  0  0  0
  -27.5100  -14.2450   83.1774 H   0  0  0  0  0  0  0  0  0  0  0  0
  -29.0766   -7.6231   85.3759 H   0  0  0  0  0  0  0  0  0  0  0  0
  -27.6452   -8.3378   86.1925 H   0  0  0  0  0  0  0  0  0  0  0  0
  -29.1575   -8.0511   87.1185 H   0  0  0  0  0  0  0  0  0  0  0  0
  1 11  1  0  0  0  0
  1 56  1  0  0  0  0
  1 57  1  0  0  0  0
  2  1  1  0  0  0  0
  2 58  1  0  0  0  0
  2 59  1  0  0  0  0
  3  2  1  0  0  0  0
  3  5  1  0  0  0  0
  3 60  1  6  0  0  0
  4  3  1  0  0  0  0
  5  6  1  0  0  0  0
  5 61  1  0  0  0  0
  5 62  1  0  0  0  0
  6  7  1  0  0  0  0
  6 11  1  0  0  0  0
  6 63  1  1  0  0  0
  7  8  1  0  0  0  0
  7 64  1  0  0  0  0
  7 65  1  0  0  0  0
  8  9  1  0  0  0  0
  8 66  1  0  0  0  0
  8 67  1  0  0  0  0
  9 16  1  0  0  0  0
  9 68  1  1  0  0  0
 10  9  1  0  0  0  0
 10 12  1  0  0  0  0
 10 69  1  6  0  0  0
 11 10  1  0  0  0  0
 11 22  1  1  0  0  0
 12 13  1  0  0  0  0
 12 70  1  0  0  0  0
 12 71  1  0  0  0  0
 13 14  1  0  0  0  0
 13 15  1  0  0  0  0
 13 72  1  6  0  0  0
 14 73  1  0  0  0  0
 15 20  1  0  0  0  0
 15 21  1  6  0  0  0
 16 15  1  0  0  0  0
 16 17  1  6  0  0  0
 16 18  1  0  0  0  0
 17 74  1  0  0  0  0
 18 19  1  0  0  0  0
 18 75  1  0  0  0  0
 18 76  1  0  0  0  0
 19 77  1  0  0  0  0
 19 78  1  0  0  0  0
 20 19  1  0  0  0  0
 20 26  1  0  0  0  0
 20 79  1  6  0  0  0
 21 80  1  0  0  0  0
 21 81  1  0  0  0  0
 21 82  1  0  0  0  0
 22 83  1  0  0  0  0
 22 84  1  0  0  0  0
 22 85  1  0  0  0  0
 23  4  1  0  0  0  0
 23 48  1  0  0  0  0
 23 86  1  6  0  0  0
 24 42  1  0  0  0  0
 24 50  1  0  0  0  0
 24 87  1  6  0  0  0
 25 34  1  0  0  0  0
 25 52  1  0  0  0  0
 25 88  1  6  0  0  0
 26 27  1  0  0  0  0
 26 29  2  0  0  0  0
 27 28  1  0  0  0  0
 27 89  1  0  0  0  0
 27 90  1  0  0  0  0
 29 30  1  0  0  0  0
 29 91  1  0  0  0  0
 30 28  1  0  0  0  0
 30 31  2  0  0  0  0
 32 23  1  0  0  0  0
 32 92  1  0  0  0  0
 32 93  1  0  0  0  0
 33 24  1  0  0  0  0
 33 94  1  0  0  0  0
 33 95  1  0  0  0  0
 34 39  1  0  0  0  0
 34 96  1  0  0  0  0
 34 97  1  0  0  0  0
 35 32  1  0  0  0  0
 35 36  1  0  0  0  0
 35 98  1  1  0  0  0
 36 99  1  0  0  0  0
 37 33  1  0  0  0  0
 37 38  1  0  0  0  0
 37100  1  1  0  0  0
 38101  1  0  0  0  0
 39 40  1  0  0  0  0
 39 45  1  0  0  0  0
 39102  1  1  0  0  0
 40103  1  0  0  0  0
 41 35  1  0  0  0  0
 41 47  1  0  0  0  0
 41104  1  1  0  0  0
 42 41  1  0  0  0  0
 43 37  1  0  0  0  0
 43 44  1  0  0  0  0
 43 49  1  0  0  0  0
 43105  1  1  0  0  0
 44 25  1  0  0  0  0
 45 46  1  0  0  0  0
 45 51  1  0  0  0  0
 45106  1  1  0  0  0
 46107  1  0  0  0  0
 47 48  1  0  0  0  0
 47 53  1  0  0  0  0
 47108  1  6  0  0  0
 49 50  1  0  0  0  0
 49 54  1  0  0  0  0
 49109  1  6  0  0  0
 51 52  1  0  0  0  0
 51 55  1  0  0  0  0
 51110  1  6  0  0  0
 53111  1  0  0  0  0
 53112  1  0  0  0  0
 53113  1  0  0  0  0
 54114  1  0  0  0  0
 54115  1  0  0  0  0
 54116  1  0  0  0  0
 55117  1  0  0  0  0
 55118  1  0  0  0  0
 55119  1  0  0  0  0
M  END
