4rio_ligand
 OpenBabel08222323353D

 37 39  0  0  1  0  0  0  0  0999 V2000
   -0.4750  -13.2630   -3.8870 C   0  0  0  0  0  0  0  0  0  0  0  0
   -1.7770  -13.0580   -3.4050 C   0  0  0  0  0  0  0  0  0  0  0  0
   -2.6900  -14.0250   -3.1570 N   0  0  0  0  0  0  0  0  0  0  0  0
   -2.2210  -15.3210   -3.3710 N   0  0  0  0  0  0  0  0  0  0  0  0
   -0.9460  -15.6440   -3.7880 C   0  0  0  0  0  0  0  0  0  0  0  0
   -0.0310  -14.5900   -4.0940 C   0  0  0  0  0  0  0  0  0  0  0  0
   -2.9580  -16.4710   -3.1260 C   0  0  0  0  0  0  0  0  0  0  0  0
   -2.1410  -17.5340   -3.3640 C   0  0  0  0  0  0  0  0  0  0  0  0
   -0.8700  -17.0270   -3.7820 C   0  0  0  0  0  0  0  0  0  0  0  0
    0.4190  -12.0930   -4.1910 C   0  0  0  0  0  0  0  0  0  0  0  0
   -0.0240  -10.8600   -3.8800 N   0  0  0  0  0  0  0  0  0  0  0  0
    1.5310  -12.2810   -4.6900 O   0  0  0  0  0  0  0  0  0  0  0  0
    1.2480  -14.8370   -4.5870 N   0  0  0  0  0  0  0  0  0  0  0  0
    1.7150  -15.9640   -5.3870 C   0  0  2  0  0  0  0  0  0  0  0  0
    2.8950  -16.6340   -4.6870 C   0  0  0  0  0  0  0  0  0  0  0  0
    3.6400  -17.3860   -5.7680 C   0  0  0  0  0  0  0  0  0  0  0  0
    3.3840  -16.6310   -7.0700 C   0  0  0  0  0  0  0  0  0  0  0  0
    2.3970  -15.5210   -6.7300 C   0  0  1  0  0  0  0  0  0  0  0  0
    1.3800  -15.2750   -7.8510 C   0  0  0  0  0  0  0  0  0  0  0  0
    3.1160  -14.3370   -6.4860 F   0  0  0  0  0  0  0  0  0  0  0  0
   -2.0791  -12.0294   -3.2137 H   0  0  0  0  0  0  0  0  0  0  0  0
   -3.9971  -16.5151   -2.8032 H   0  0  0  0  0  0  0  0  0  0  0  0
   -2.4078  -18.5842   -3.2554 H   0  0  0  0  0  0  0  0  0  0  0  0
    0.0020  -17.6226   -4.0481 H   0  0  0  0  0  0  0  0  0  0  0  0
    0.5468  -10.0611   -4.0695 H   0  0  0  0  0  0  0  0  0  0  0  0
   -0.9238  -10.7433   -3.4595 H   0  0  0  0  0  0  0  0  0  0  0  0
    1.9595  -14.1290   -4.3557 H   0  0  0  0  0  0  0  0  0  0  0  0
    0.8846  -16.6627   -5.5665 H   0  0  0  0  0  0  0  0  0  0  0  0
    2.5374  -17.3293   -3.9133 H   0  0  0  0  0  0  0  0  0  0  0  0
    3.5477  -15.8775   -4.2269 H   0  0  0  0  0  0  0  0  0  0  0  0
    3.2622  -18.4162   -5.8447 H   0  0  0  0  0  0  0  0  0  0  0  0
    4.7169  -17.4060   -5.5449 H   0  0  0  0  0  0  0  0  0  0  0  0
    2.9536  -17.3062   -7.8242 H   0  0  0  0  0  0  0  0  0  0  0  0
    4.3219  -16.2031   -7.4535 H   0  0  0  0  0  0  0  0  0  0  0  0
    0.6950  -14.4673   -7.5538 H   0  0  0  0  0  0  0  0  0  0  0  0
    0.8050  -16.1950   -8.0329 H   0  0  0  0  0  0  0  0  0  0  0  0
    1.9104  -14.9862   -8.7704 H   0  0  0  0  0  0  0  0  0  0  0  0
  1  2  1  0  0  0  0
  1  6  2  0  0  0  0
  1 10  1  0  0  0  0
  2  3  2  0  0  0  0
  2 21  1  0  0  0  0
  3  4  1  0  0  0  0
  4  5  1  0  0  0  0
  4  7  1  0  0  0  0
  5  6  1  0  0  0  0
  5  9  2  0  0  0  0
  6 13  1  0  0  0  0
  7  8  2  0  0  0  0
  7 22  1  0  0  0  0
  8  9  1  0  0  0  0
  8 23  1  0  0  0  0
  9 24  1  0  0  0  0
 10 11  1  0  0  0  0
 10 12  2  0  0  0  0
 11 25  1  0  0  0  0
 11 26  1  0  0  0  0
 13 14  1  0  0  0  0
 13 27  1  0  0  0  0
 14 15  1  0  0  0  0
 14 18  1  0  0  0  0
 14 28  1  6  0  0  0
 15 16  1  0  0  0  0
 15 29  1  0  0  0  0
 15 30  1  0  0  0  0
 16 17  1  0  0  0  0
 16 31  1  0  0  0  0
 16 32  1  0  0  0  0
 17 18  1  0  0  0  0
 17 33  1  0  0  0  0
 17 34  1  0  0  0  0
 18 19  1  0  0  0  0
 18 20  1  1  0  0  0
 19 35  1  0  0  0  0
 19 36  1  0  0  0  0
 19 37  1  0  0  0  0
M  END
