4rj5_ligand
 OpenBabel08222323353D

 51 55  0  0  0  0  0  0  0  0999 V2000
  -47.9510   -1.1370  -21.2360 C   0  0  0  0  0  0  0  0  0  0  0  0
  -48.7770   -0.1420  -20.4040 C   0  0  0  0  0  0  0  0  0  0  0  0
  -51.4830    1.0710  -16.9700 C   0  0  0  0  0  0  0  0  0  0  0  0
  -48.7170   -1.5920  -18.4100 C   0  0  0  0  0  0  0  0  0  0  0  0
  -47.8890   -2.6660  -19.1390 C   0  0  0  0  0  0  0  0  0  0  0  0
  -50.5690   -0.0520  -18.8060 C   0  0  0  0  0  0  0  0  0  0  0  0
  -52.5350    1.5170  -17.7600 C   0  0  0  0  0  0  0  0  0  0  0  0
  -52.5670    1.1400  -19.1160 C   0  0  0  0  0  0  0  0  0  0  0  0
  -47.0990   -2.0380  -20.3120 C   0  0  0  0  0  0  0  0  0  0  0  0
  -46.7790   -4.0130  -21.8100 C   0  0  0  0  0  0  0  0  0  0  0  0
  -46.2230   -2.9500  -21.0090 O   0  0  0  0  0  0  0  0  0  0  0  0
  -49.5690   -0.8510  -19.3720 N   0  0  0  0  0  0  0  0  0  0  0  0
  -50.5310    0.3070  -17.5140 N   0  0  0  0  0  0  0  0  0  0  0  0
  -51.5820    0.3540  -19.5810 N   0  0  0  0  0  0  0  0  0  0  0  0
  -53.6270    1.5950  -19.9140 N   0  0  0  0  0  0  0  0  0  0  0  0
  -53.8360    1.3780  -21.2870 C   0  0  0  0  0  0  0  0  0  0  0  0
  -53.0310    0.5140  -22.0230 C   0  0  0  0  0  0  0  0  0  0  0  0
  -53.2850    0.3250  -23.3800 C   0  0  0  0  0  0  0  0  0  0  0  0
  -54.3760    1.0090  -23.9780 C   0  0  0  0  0  0  0  0  0  0  0  0
  -54.3810    0.5940  -25.3850 C   0  0  0  0  0  0  0  0  0  0  0  0
  -53.3360   -0.2640  -25.5520 C   0  0  0  0  0  0  0  0  0  0  0  0
  -52.6780   -0.4220  -24.3560 N   0  0  0  0  0  0  0  0  0  0  0  0
  -52.8880   -0.9270  -26.8000 C   0  0  0  0  0  0  0  0  0  0  0  0
  -51.7580   -0.6160  -27.5020 C   0  0  0  0  0  0  0  0  0  0  0  0
  -51.6940   -1.4450  -28.5630 N   0  0  0  0  0  0  0  0  0  0  0  0
  -52.8060   -2.2920  -28.5290 N   0  0  0  0  0  0  0  0  0  0  0  0
  -53.5120   -1.9990  -27.4700 C   0  0  0  0  0  0  0  0  0  0  0  0
  -55.1650    1.8390  -23.1660 C   0  0  0  0  0  0  0  0  0  0  0  0
  -54.8600    2.0030  -21.8810 N   0  0  0  0  0  0  0  0  0  0  0  0
  -47.2858   -0.5795  -21.9117 H   0  0  0  0  0  0  0  0  0  0  0  0
  -48.6315   -1.7664  -21.8283 H   0  0  0  0  0  0  0  0  0  0  0  0
  -49.4601    0.4055  -21.0700 H   0  0  0  0  0  0  0  0  0  0  0  0
  -48.0969    0.5687  -19.9117 H   0  0  0  0  0  0  0  0  0  0  0  0
  -51.4347    1.3404  -15.9211 H   0  0  0  0  0  0  0  0  0  0  0  0
  -48.0361   -0.8864  -17.9115 H   0  0  0  0  0  0  0  0  0  0  0  0
  -49.3572   -2.0768  -17.6583 H   0  0  0  0  0  0  0  0  0  0  0  0
  -48.5651   -3.4399  -19.5313 H   0  0  0  0  0  0  0  0  0  0  0  0
  -47.1824   -3.1216  -18.4297 H   0  0  0  0  0  0  0  0  0  0  0  0
  -53.3151    2.1423  -17.3411 H   0  0  0  0  0  0  0  0  0  0  0  0
  -46.4095   -1.3363  -19.8199 H   0  0  0  0  0  0  0  0  0  0  0  0
  -45.9634   -4.5985  -22.2593 H   0  0  0  0  0  0  0  0  0  0  0  0
  -47.4039   -3.5833  -22.6068 H   0  0  0  0  0  0  0  0  0  0  0  0
  -47.3936   -4.6678  -21.1748 H   0  0  0  0  0  0  0  0  0  0  0  0
  -54.3423    2.1592  -19.4334 H   0  0  0  0  0  0  0  0  0  0  0  0
  -52.2113   -0.0089  -21.5436 H   0  0  0  0  0  0  0  0  0  0  0  0
  -55.0866    0.9117  -26.1512 H   0  0  0  0  0  0  0  0  0  0  0  0
  -51.8486   -1.0159  -24.2135 H   0  0  0  0  0  0  0  0  0  0  0  0
  -51.0385    0.1616  -27.2498 H   0  0  0  0  0  0  0  0  0  0  0  0
  -53.0299   -3.0218  -29.2205 H   0  0  0  0  0  0  0  0  0  0  0  0
  -54.4279   -2.4984  -27.1574 H   0  0  0  0  0  0  0  0  0  0  0  0
  -56.0249    2.3476  -23.5867 H   0  0  0  0  0  0  0  0  0  0  0  0
  1  9  1  0  0  0  0
  1 30  1  0  0  0  0
  1 31  1  0  0  0  0
  2  1  1  0  0  0  0
  2 32  1  0  0  0  0
  2 33  1  0  0  0  0
  3  7  2  0  0  0  0
  3 34  1  0  0  0  0
  4  5  1  0  0  0  0
  4 35  1  0  0  0  0
  4 36  1  0  0  0  0
  5  9  1  0  0  0  0
  5 37  1  0  0  0  0
  5 38  1  0  0  0  0
  6 12  1  0  0  0  0
  6 13  2  0  0  0  0
  6 14  1  0  0  0  0
  7  8  1  0  0  0  0
  7 39  1  0  0  0  0
  8 14  2  0  0  0  0
  8 15  1  0  0  0  0
  9 11  1  0  0  0  0
  9 40  1  0  0  0  0
 10 41  1  0  0  0  0
 10 42  1  0  0  0  0
 10 43  1  0  0  0  0
 11 10  1  0  0  0  0
 12  2  1  0  0  0  0
 12  4  1  0  0  0  0
 13  3  1  0  0  0  0
 15 16  1  0  0  0  0
 15 44  1  0  0  0  0
 16 17  2  0  0  0  0
 16 29  1  0  0  0  0
 17 18  1  0  0  0  0
 17 45  1  0  0  0  0
 18 19  2  0  0  0  0
 18 22  1  0  0  0  0
 19 20  1  0  0  0  0
 19 28  1  0  0  0  0
 20 21  2  0  0  0  0
 20 46  1  0  0  0  0
 21 22  1  0  0  0  0
 21 23  1  0  0  0  0
 22 47  1  0  0  0  0
 23 24  1  0  0  0  0
 23 27  2  0  0  0  0
 24 25  2  0  0  0  0
 24 48  1  0  0  0  0
 25 26  1  0  0  0  0
 26 27  1  0  0  0  0
 26 49  1  0  0  0  0
 27 50  1  0  0  0  0
 28 29  2  0  0  0  0
 28 51  1  0  0  0  0
M  END
