4rkx_ligand
 OpenBabel08222323353D

 24 24  0  0  0  0  0  0  0  0999 V2000
   17.0990  -12.9310  -22.9950 N   0  0  0  0  0  0  0  0  0  0  0  0
   16.2300  -12.7750  -23.7490 C   0  0  0  0  0  0  0  0  0  0  0  0
   15.1290  -12.5870  -24.7080 C   0  0  0  0  0  0  0  0  0  0  0  0
   14.4390  -11.3030  -24.5930 N   0  0  0  0  0  0  0  0  0  0  0  0
   13.3220  -11.0330  -23.9150 C   0  0  0  0  0  0  0  0  0  0  0  0
   12.7300  -11.8730  -23.2550 O   0  0  0  0  0  0  0  0  0  0  0  0
   12.7710   -9.6880  -23.9390 O   0  0  0  0  0  0  0  0  0  0  0  0
   11.5020   -9.4510  -23.3310 C   0  0  0  0  0  0  0  0  0  0  0  0
   11.3550   -7.1950  -24.4480 C   0  0  0  0  0  0  0  0  0  0  0  0
   10.6360   -6.2210  -25.1320 C   0  0  0  0  0  0  0  0  0  0  0  0
    9.2980   -6.4320  -25.4500 C   0  0  0  0  0  0  0  0  0  0  0  0
    8.6840   -7.6200  -25.0810 C   0  0  0  0  0  0  0  0  0  0  0  0
    9.4040   -8.5910  -24.3940 C   0  0  0  0  0  0  0  0  0  0  0  0
   10.7400   -8.3830  -24.0800 C   0  0  0  0  0  0  0  0  0  0  0  0
   14.3928  -13.3884  -24.5477 H   0  0  0  0  0  0  0  0  0  0  0  0
   15.5414  -12.6658  -25.7247 H   0  0  0  0  0  0  0  0  0  0  0  0
   14.8540  -10.5351  -25.0810 H   0  0  0  0  0  0  0  0  0  0  0  0
   11.6552   -9.1233  -22.2922 H   0  0  0  0  0  0  0  0  0  0  0  0
   10.9183  -10.3833  -23.3391 H   0  0  0  0  0  0  0  0  0  0  0  0
   12.3971   -7.0260  -24.2020 H   0  0  0  0  0  0  0  0  0  0  0  0
   11.1196   -5.2941  -25.4185 H   0  0  0  0  0  0  0  0  0  0  0  0
    8.7383   -5.6721  -25.9833 H   0  0  0  0  0  0  0  0  0  0  0  0
    7.6426   -7.7913  -25.3283 H   0  0  0  0  0  0  0  0  0  0  0  0
    8.9193   -9.5156  -24.1020 H   0  0  0  0  0  0  0  0  0  0  0  0
  2  1  3  0  0  0  0
  3  2  1  0  0  0  0
  3 15  1  0  0  0  0
  3 16  1  0  0  0  0
  4  3  1  0  0  0  0
  4 17  1  0  0  0  0
  5  4  1  0  0  0  0
  5  6  2  0  0  0  0
  7  5  1  0  0  0  0
  8  7  1  0  0  0  0
  8 18  1  0  0  0  0
  8 19  1  0  0  0  0
  9 10  2  0  0  0  0
  9 14  1  0  0  0  0
  9 20  1  0  0  0  0
 10 11  1  0  0  0  0
 10 21  1  0  0  0  0
 11 12  2  0  0  0  0
 11 22  1  0  0  0  0
 12 13  1  0  0  0  0
 12 23  1  0  0  0  0
 13 14  2  0  0  0  0
 13 24  1  0  0  0  0
 14  8  1  0  0  0  0
M  END
