4rll_ligand
 OpenBabel08222323353D

 38 41  0  0  0  0  0  0  0  0999 V2000
  -16.6750   10.9860   44.1910 O   0  5  0  0  0  0  0  0  0  0  0  0
  -16.5340   11.2080   45.4210 C   0  0  0  0  0  0  0  0  0  0  0  0
  -16.1620   10.3790   46.2670 O   0  0  0  0  0  0  0  0  0  0  0  0
  -16.8210   12.6420   45.9220 C   0  0  0  0  0  0  0  0  0  0  0  0
  -16.9180   12.9520   47.2800 C   0  0  0  0  0  0  0  0  0  0  0  0
  -17.1690   14.2600   47.7270 C   0  0  0  0  0  0  0  0  0  0  0  0
  -17.3330   15.2920   46.8010 C   0  0  0  0  0  0  0  0  0  0  0  0
  -17.5940   16.6510   47.2020 C   0  0  0  0  0  0  0  0  0  0  0  0
  -17.2830   17.7630   46.5320 N   0  0  0  0  0  0  0  0  0  0  0  0
  -17.4510   18.9760   46.7450 N   0  0  0  0  0  0  0  0  0  0  0  0
  -17.3570   20.1220   46.1670 C   0  0  0  0  0  0  0  0  0  0  0  0
  -17.3660   21.5350   46.6460 C   0  0  0  0  0  0  0  0  0  0  0  0
  -17.5820   22.0230   47.9340 C   0  0  0  0  0  0  0  0  0  0  0  0
  -17.5430   23.4180   48.1520 C   0  0  0  0  0  0  0  0  0  0  0  0
  -17.2960   24.2740   47.0950 C   0  0  0  0  0  0  0  0  0  0  0  0
  -17.0790   23.7770   45.7900 C   0  0  0  0  0  0  0  0  0  0  0  0
  -17.1120   22.4000   45.5570 C   0  0  0  0  0  0  0  0  0  0  0  0
  -16.9270   21.5750   44.3350 C   0  0  0  0  0  0  0  0  0  0  0  0
  -16.6570   21.8920   43.0010 C   0  0  0  0  0  0  0  0  0  0  0  0
  -16.5330   20.8650   42.0380 C   0  0  0  0  0  0  0  0  0  0  0  0
  -16.6780   19.5420   42.3980 C   0  0  0  0  0  0  0  0  0  0  0  0
  -16.9510   19.2050   43.7400 C   0  0  0  0  0  0  0  0  0  0  0  0
  -17.0720   20.2210   44.6890 C   0  0  0  0  0  0  0  0  0  0  0  0
  -17.2330   14.9880   45.4440 C   0  0  0  0  0  0  0  0  0  0  0  0
  -16.9820   13.6810   45.0180 C   0  0  0  0  0  0  0  0  0  0  0  0
  -16.7961   12.1605   48.0105 H   0  0  0  0  0  0  0  0  0  0  0  0
  -17.2352   14.4676   48.7889 H   0  0  0  0  0  0  0  0  0  0  0  0
  -18.1006   16.7859   48.1565 H   0  0  0  0  0  0  0  0  0  0  0  0
  -17.7768   21.3426   48.7551 H   0  0  0  0  0  0  0  0  0  0  0  0
  -17.7065   23.8168   49.1466 H   0  0  0  0  0  0  0  0  0  0  0  0
  -17.2683   25.3434   47.2699 H   0  0  0  0  0  0  0  0  0  0  0  0
  -16.8875   24.4623   44.9722 H   0  0  0  0  0  0  0  0  0  0  0  0
  -16.5424   22.9282   42.7041 H   0  0  0  0  0  0  0  0  0  0  0  0
  -16.3217   21.1201   41.0058 H   0  0  0  0  0  0  0  0  0  0  0  0
  -16.5824   18.7623   41.6510 H   0  0  0  0  0  0  0  0  0  0  0  0
  -17.0657   18.1672   44.0314 H   0  0  0  0  0  0  0  0  0  0  0  0
  -17.3516   15.7763   44.7094 H   0  0  0  0  0  0  0  0  0  0  0  0
  -16.9115   13.4746   43.9562 H   0  0  0  0  0  0  0  0  0  0  0  0
  1  2  1  0  0  0  0
  2  3  2  0  0  0  0
  2  4  1  0  0  0  0
  4  5  2  0  0  0  0
  4 25  1  0  0  0  0
  5  6  1  0  0  0  0
  5 26  1  0  0  0  0
  6  7  2  0  0  0  0
  6 27  1  0  0  0  0
  7  8  1  0  0  0  0
  7 24  1  0  0  0  0
  8  9  2  0  0  0  0
  8 28  1  0  0  0  0
  9 10  1  0  0  0  0
 10 11  2  0  0  0  0
 11 12  1  0  0  0  0
 11 23  1  0  0  0  0
 12 13  2  0  0  0  0
 12 17  1  0  0  0  0
 13 14  1  0  0  0  0
 13 29  1  0  0  0  0
 14 15  2  0  0  0  0
 14 30  1  0  0  0  0
 15 16  1  0  0  0  0
 15 31  1  0  0  0  0
 16 17  2  0  0  0  0
 16 32  1  0  0  0  0
 17 18  1  0  0  0  0
 18 19  2  0  0  0  0
 18 23  1  0  0  0  0
 19 20  1  0  0  0  0
 19 33  1  0  0  0  0
 20 21  2  0  0  0  0
 20 34  1  0  0  0  0
 21 22  1  0  0  0  0
 21 35  1  0  0  0  0
 22 23  2  0  0  0  0
 22 36  1  0  0  0  0
 24 25  2  0  0  0  0
 24 37  1  0  0  0  0
 25 38  1  0  0  0  0
M  CHG  1   1  -1
M  END
