4rn0_ligand
 OpenBabel08222323353D

 61 63  0  0  1  0  0  0  0  0999 V2000
   -2.7810   10.6540  -18.3900 C   0  0  0  0  0  0  0  0  0  0  0  0
   -2.2410    9.8280  -19.5860 C   0  0  0  0  0  0  0  0  0  0  0  0
   -2.4860    8.3490  -19.3460 C   0  0  0  0  0  0  0  0  0  0  0  0
   -1.4460    7.5010  -19.4060 C   0  0  0  0  0  0  0  0  0  0  0  0
   -1.6050    6.0120  -19.1790 C   0  0  2  0  0  0  0  0  0  0  0  0
   -0.5900    5.0220  -21.1570 C   0  0  0  0  0  0  0  0  0  0  0  0
    0.5470    4.2560  -21.7830 C   0  0  2  0  0  0  0  0  0  0  0  0
   -0.0370    3.1130  -22.6390 C   0  0  0  0  0  0  0  0  0  0  0  0
   -0.9520    2.1750  -21.8490 C   0  0  0  0  0  0  0  0  0  0  0  0
    1.0330    2.2470  -23.3250 C   0  0  0  0  0  0  0  0  0  0  0  0
    2.7250    3.5820  -20.8950 C   0  0  0  0  0  0  0  0  0  0  0  0
    3.5020    2.8690  -19.8110 C   0  0  2  0  0  0  0  0  0  0  0  0
    4.6530    3.7850  -19.3930 C   0  0  0  0  0  0  0  0  0  0  0  0
    3.9750    1.5450  -20.4320 C   0  0  0  0  0  0  0  0  0  0  0  0
    2.1890    1.3540  -18.6800 C   0  0  0  0  0  0  0  0  0  0  0  0
    1.1000    0.9960  -17.7620 C   0  0  0  0  0  0  0  0  0  0  0  0
    0.8470   -0.2780  -17.2530 C   0  0  0  0  0  0  0  0  0  0  0  0
   -0.7120    1.5720  -16.5150 C   0  0  0  0  0  0  0  0  0  0  0  0
   -1.7910    2.3860  -15.8650 C   0  0  0  0  0  0  0  0  0  0  0  0
   -1.9630    4.2810  -17.3700 C   0  0  0  0  0  0  0  0  0  0  0  0
   -1.5620    5.7100  -17.6940 C   0  0  0  0  0  0  0  0  0  0  0  0
   -0.5150    5.2680  -19.8520 N   0  0  0  0  0  0  0  0  0  0  0  0
    1.4040    3.6470  -20.7710 N   0  0  0  0  0  0  0  0  0  0  0  0
    2.6360    2.5410  -18.6770 N   0  0  0  0  0  0  0  0  0  0  0  0
    0.2500    1.9730  -17.3430 N   0  0  0  0  0  0  0  0  0  0  0  0
   -1.4530    3.7550  -16.2750 N   0  0  0  0  0  0  0  0  0  0  0  0
   -1.5230    5.3580  -21.8670 O   0  0  0  0  0  0  0  0  0  0  0  0
    3.3060    4.0550  -21.8710 O   0  0  0  0  0  0  0  0  0  0  0  0
   -2.7330    3.6450  -18.0770 O   0  0  0  0  0  0  0  0  0  0  0  0
   -2.8010   12.4400  -18.8280 S   0  0  0  0  0  0  0  0  0  0  0  0
    2.9080    0.2970  -19.7680 S   0  0  0  0  0  0  0  0  0  0  0  0
   -0.5340   -0.1330  -16.2320 S   0  0  0  0  0  0  0  0  0  0  0  0
   -2.1314   10.4993  -17.5159 H   0  0  0  0  0  0  0  0  0  0  0  0
   -3.8029   10.3250  -18.1502 H   0  0  0  0  0  0  0  0  0  0  0  0
   -1.1608   10.0058  -19.6938 H   0  0  0  0  0  0  0  0  0  0  0  0
   -2.7574   10.1384  -20.5063 H   0  0  0  0  0  0  0  0  0  0  0  0
   -3.4880    7.9818  -19.1289 H   0  0  0  0  0  0  0  0  0  0  0  0
   -0.4556    7.8973  -19.6251 H   0  0  0  0  0  0  0  0  0  0  0  0
   -2.5726    5.6874  -19.5892 H   0  0  0  0  0  0  0  0  0  0  0  0
    1.1421    4.9352  -22.4112 H   0  0  0  0  0  0  0  0  0  0  0  0
   -0.6404    3.5868  -23.4273 H   0  0  0  0  0  0  0  0  0  0  0  0
   -1.3325    1.3868  -22.5154 H   0  0  0  0  0  0  0  0  0  0  0  0
   -1.7969    2.7471  -21.4381 H   0  0  0  0  0  0  0  0  0  0  0  0
   -0.3845    1.7166  -21.0257 H   0  0  0  0  0  0  0  0  0  0  0  0
    1.7106    2.8917  -23.9040 H   0  0  0  0  0  0  0  0  0  0  0  0
    0.5455    1.5279  -23.9997 H   0  0  0  0  0  0  0  0  0  0  0  0
    1.6082    1.7021  -22.5620 H   0  0  0  0  0  0  0  0  0  0  0  0
    5.2419    3.2965  -18.6027 H   0  0  0  0  0  0  0  0  0  0  0  0
    4.2470    4.7344  -19.0139 H   0  0  0  0  0  0  0  0  0  0  0  0
    5.2982    3.9829  -20.2617 H   0  0  0  0  0  0  0  0  0  0  0  0
    5.0202    1.3431  -20.1551 H   0  0  0  0  0  0  0  0  0  0  0  0
    3.8866    1.5820  -21.5278 H   0  0  0  0  0  0  0  0  0  0  0  0
    1.4114   -1.1860  -17.4601 H   0  0  0  0  0  0  0  0  0  0  0  0
   -1.7622    2.2812  -14.7704 H   0  0  0  0  0  0  0  0  0  0  0  0
   -2.7851    2.0950  -16.2352 H   0  0  0  0  0  0  0  0  0  0  0  0
   -2.2509    6.3938  -17.1766 H   0  0  0  0  0  0  0  0  0  0  0  0
   -0.5373    5.8779  -17.3311 H   0  0  0  0  0  0  0  0  0  0  0  0
    0.2749    4.9516  -19.3267 H   0  0  0  0  0  0  0  0  0  0  0  0
    0.9797    3.2630  -19.9509 H   0  0  0  0  0  0  0  0  0  0  0  0
   -0.8262    4.2963  -15.7145 H   0  0  0  0  0  0  0  0  0  0  0  0
   -1.8644   12.7415  -19.0471 H   0  0  0  0  0  0  0  0  0  0  0  0
  1 30  1  0  0  0  0
  1 33  1  0  0  0  0
  1 34  1  0  0  0  0
  2  1  1  0  0  0  0
  2 35  1  0  0  0  0
  2 36  1  0  0  0  0
  3  2  1  0  0  0  0
  3 37  1  0  0  0  0
  4  3  2  0  0  0  0
  4 38  1  0  0  0  0
  5  4  1  0  0  0  0
  5 21  1  0  0  0  0
  5 39  1  6  0  0  0
  6 22  1  0  0  0  0
  6 27  2  0  0  0  0
  7  6  1  0  0  0  0
  7  8  1  0  0  0  0
  7 40  1  6  0  0  0
  8  9  1  0  0  0  0
  8 10  1  0  0  0  0
  8 41  1  0  0  0  0
  9 42  1  0  0  0  0
  9 43  1  0  0  0  0
  9 44  1  0  0  0  0
 10 45  1  0  0  0  0
 10 46  1  0  0  0  0
 10 47  1  0  0  0  0
 11 23  1  0  0  0  0
 11 28  2  0  0  0  0
 12 11  1  0  0  0  0
 12 13  1  1  0  0  0
 13 48  1  0  0  0  0
 13 49  1  0  0  0  0
 13 50  1  0  0  0  0
 14 12  1  0  0  0  0
 14 51  1  0  0  0  0
 14 52  1  0  0  0  0
 15 24  2  0  0  0  0
 15 31  1  0  0  0  0
 16 15  1  0  0  0  0
 16 17  2  0  0  0  0
 17 32  1  0  0  0  0
 17 53  1  0  0  0  0
 18 19  1  0  0  0  0
 18 25  2  0  0  0  0
 18 32  1  0  0  0  0
 19 26  1  0  0  0  0
 19 54  1  0  0  0  0
 19 55  1  0  0  0  0
 20 26  1  0  0  0  0
 20 29  2  0  0  0  0
 21 20  1  0  0  0  0
 21 56  1  0  0  0  0
 21 57  1  0  0  0  0
 22  5  1  0  0  0  0
 22 58  1  0  0  0  0
 23  7  1  0  0  0  0
 23 59  1  0  0  0  0
 24 12  1  0  0  0  0
 25 16  1  0  0  0  0
 26 60  1  0  0  0  0
 30 61  1  0  0  0  0
 31 14  1  0  0  0  0
M  END
