4rn1_ligand
 OpenBabel08222323353D

 64 66  0  0  1  0  0  0  0  0999 V2000
   -2.9670   10.9080  -18.5120 C   0  0  0  0  0  0  0  0  0  0  0  0
   -2.0440   10.0680  -19.3860 C   0  0  0  0  0  0  0  0  0  0  0  0
   -2.2060    8.5990  -19.0780 C   0  0  0  0  0  0  0  0  0  0  0  0
   -1.3490    7.7310  -19.6100 C   0  0  0  0  0  0  0  0  0  0  0  0
   -1.4760    6.2520  -19.3310 C   0  0  2  0  0  0  0  0  0  0  0  0
   -0.5600    5.1120  -21.2520 C   0  0  0  0  0  0  0  0  0  0  0  0
    0.5700    4.3470  -21.8860 C   0  0  2  0  0  0  0  0  0  0  0  0
   -0.0080    3.2550  -22.7830 C   0  0  0  0  0  0  0  0  0  0  0  0
   -0.8920    2.3020  -21.9900 C   0  0  0  0  0  0  0  0  0  0  0  0
    1.0860    2.4840  -23.5160 C   0  0  0  0  0  0  0  0  0  0  0  0
    2.7140    3.8440  -20.8730 C   0  0  0  0  0  0  0  0  0  0  0  0
    3.4920    3.0670  -19.8430 C   0  0  2  0  0  0  0  0  0  0  0  0
    4.6820    3.9010  -19.3880 C   0  0  0  0  0  0  0  0  0  0  0  0
    3.9610    1.7620  -20.4910 C   0  0  0  0  0  0  0  0  0  0  0  0
    2.1710    1.5630  -18.6870 C   0  0  0  0  0  0  0  0  0  0  0  0
    1.1030    1.1270  -17.7300 C   0  0  0  0  0  0  0  0  0  0  0  0
    0.9780   -0.2120  -17.3730 C   0  0  0  0  0  0  0  0  0  0  0  0
   -0.0230   -0.5940  -16.4860 C   0  0  0  0  0  0  0  0  0  0  0  0
   -0.8800    0.3740  -15.9790 C   0  0  0  0  0  0  0  0  0  0  0  0
   -0.7240    1.7020  -16.3660 C   0  0  0  0  0  0  0  0  0  0  0  0
   -1.6510    2.7610  -15.8160 C   0  0  0  0  0  0  0  0  0  0  0  0
   -1.8130    4.6150  -17.4770 C   0  0  0  0  0  0  0  0  0  0  0  0
   -1.3210    5.9990  -17.8330 C   0  0  0  0  0  0  0  0  0  0  0  0
   -0.4110    5.5040  -19.9880 N   0  0  0  0  0  0  0  0  0  0  0  0
    1.3980    3.6440  -20.9150 N   0  0  0  0  0  0  0  0  0  0  0  0
    2.6340    2.7350  -18.7050 N   0  0  0  0  0  0  0  0  0  0  0  0
    0.2550    2.0490  -17.2280 N   0  0  0  0  0  0  0  0  0  0  0  0
   -1.3240    4.0690  -16.3660 N   0  0  0  0  0  0  0  0  0  0  0  0
   -1.5630    5.3680  -21.8990 O   0  0  0  0  0  0  0  0  0  0  0  0
    3.2900    4.6020  -21.6350 O   0  0  0  0  0  0  0  0  0  0  0  0
   -2.6340    4.0510  -18.1790 O   0  0  0  0  0  0  0  0  0  0  0  0
   -2.7800   12.6600  -18.9340 S   0  0  0  0  0  0  0  0  0  0  0  0
    2.8610    0.5670  -19.8180 S   0  0  0  0  0  0  0  0  0  0  0  0
   -2.7064   10.7569  -17.4541 H   0  0  0  0  0  0  0  0  0  0  0  0
   -4.0097   10.6007  -18.6803 H   0  0  0  0  0  0  0  0  0  0  0  0
   -1.0013   10.3633  -19.1976 H   0  0  0  0  0  0  0  0  0  0  0  0
   -2.2896   10.2441  -20.4437 H   0  0  0  0  0  0  0  0  0  0  0  0
   -3.0114    8.2551  -18.4307 H   0  0  0  0  0  0  0  0  0  0  0  0
   -0.5475    8.0909  -20.2534 H   0  0  0  0  0  0  0  0  0  0  0  0
   -2.4570    5.8966  -19.6794 H   0  0  0  0  0  0  0  0  0  0  0  0
    1.1902    5.0417  -22.4714 H   0  0  0  0  0  0  0  0  0  0  0  0
   -0.6364    3.7458  -23.5408 H   0  0  0  0  0  0  0  0  0  0  0  0
   -1.2925    1.5286  -22.6619 H   0  0  0  0  0  0  0  0  0  0  0  0
   -1.7241    2.8629  -21.5394 H   0  0  0  0  0  0  0  0  0  0  0  0
   -0.2981    1.8259  -21.1959 H   0  0  0  0  0  0  0  0  0  0  0  0
    1.7137    3.1876  -24.0825 H   0  0  0  0  0  0  0  0  0  0  0  0
    0.6259    1.7637  -24.2085 H   0  0  0  0  0  0  0  0  0  0  0  0
    1.7071    1.9450  -22.7855 H   0  0  0  0  0  0  0  0  0  0  0  0
    5.2560    3.3407  -18.6353 H   0  0  0  0  0  0  0  0  0  0  0  0
    4.3228    4.8432  -18.9485 H   0  0  0  0  0  0  0  0  0  0  0  0
    5.3269    4.1214  -20.2514 H   0  0  0  0  0  0  0  0  0  0  0  0
    5.0028    1.5377  -20.2186 H   0  0  0  0  0  0  0  0  0  0  0  0
    3.8705    1.8098  -21.5862 H   0  0  0  0  0  0  0  0  0  0  0  0
    1.6557   -0.9520  -17.7831 H   0  0  0  0  0  0  0  0  0  0  0  0
   -0.1326   -1.6324  -16.1947 H   0  0  0  0  0  0  0  0  0  0  0  0
   -1.6660    0.0970  -15.2858 H   0  0  0  0  0  0  0  0  0  0  0  0
   -1.5511    2.7948  -14.7211 H   0  0  0  0  0  0  0  0  0  0  0  0
   -2.6876    2.5067  -16.0820 H   0  0  0  0  0  0  0  0  0  0  0  0
   -1.9070    6.7457  -17.2771 H   0  0  0  0  0  0  0  0  0  0  0  0
   -0.2595    6.0876  -17.5587 H   0  0  0  0  0  0  0  0  0  0  0  0
    0.4289    5.2859  -19.4910 H   0  0  0  0  0  0  0  0  0  0  0  0
    0.9738    3.0048  -20.2735 H   0  0  0  0  0  0  0  0  0  0  0  0
   -0.6611    4.6155  -15.8542 H   0  0  0  0  0  0  0  0  0  0  0  0
   -3.3923   13.2114  -18.3535 H   0  0  0  0  0  0  0  0  0  0  0  0
  1 32  1  0  0  0  0
  1 34  1  0  0  0  0
  1 35  1  0  0  0  0
  2  1  1  0  0  0  0
  2 36  1  0  0  0  0
  2 37  1  0  0  0  0
  3  2  1  0  0  0  0
  3 38  1  0  0  0  0
  4  3  2  0  0  0  0
  4 39  1  0  0  0  0
  5  4  1  0  0  0  0
  5 23  1  0  0  0  0
  5 40  1  6  0  0  0
  6 24  1  0  0  0  0
  6 29  2  0  0  0  0
  7  6  1  0  0  0  0
  7  8  1  0  0  0  0
  7 41  1  6  0  0  0
  8  9  1  0  0  0  0
  8 10  1  0  0  0  0
  8 42  1  0  0  0  0
  9 43  1  0  0  0  0
  9 44  1  0  0  0  0
  9 45  1  0  0  0  0
 10 46  1  0  0  0  0
 10 47  1  0  0  0  0
 10 48  1  0  0  0  0
 11 25  1  0  0  0  0
 11 30  2  0  0  0  0
 12 11  1  0  0  0  0
 12 13  1  1  0  0  0
 12 14  1  0  0  0  0
 13 49  1  0  0  0  0
 13 50  1  0  0  0  0
 13 51  1  0  0  0  0
 14 33  1  0  0  0  0
 14 52  1  0  0  0  0
 14 53  1  0  0  0  0
 15 16  1  0  0  0  0
 15 26  2  0  0  0  0
 15 33  1  0  0  0  0
 16 17  2  0  0  0  0
 16 27  1  0  0  0  0
 17 18  1  0  0  0  0
 17 54  1  0  0  0  0
 18 19  2  0  0  0  0
 18 55  1  0  0  0  0
 19 20  1  0  0  0  0
 19 56  1  0  0  0  0
 20 21  1  0  0  0  0
 20 27  2  0  0  0  0
 21 28  1  0  0  0  0
 21 57  1  0  0  0  0
 21 58  1  0  0  0  0
 22 28  1  0  0  0  0
 22 31  2  0  0  0  0
 23 22  1  0  0  0  0
 23 59  1  0  0  0  0
 23 60  1  0  0  0  0
 24  5  1  0  0  0  0
 24 61  1  0  0  0  0
 25  7  1  0  0  0  0
 25 62  1  0  0  0  0
 26 12  1  0  0  0  0
 28 63  1  0  0  0  0
 32 64  1  0  0  0  0
M  END
