4rro_ligand
 OpenBabel08222323353D

 51 55  0  0  1  0  0  0  0  0999 V2000
   26.9660   15.4910    9.6340 C   0  0  0  0  0  0  0  0  0  0  0  0
   27.6890   14.2810    9.4550 C   0  0  0  0  0  0  0  0  0  0  0  0
   27.0290   13.1140    8.9880 C   0  0  0  0  0  0  0  0  0  0  0  0
   25.6410   13.1240    8.6950 C   0  0  0  0  0  0  0  0  0  0  0  0
   24.9200   14.3370    8.8690 C   0  0  0  0  0  0  0  0  0  0  0  0
   25.5810   15.5080    9.3220 C   0  0  0  0  0  0  0  0  0  0  0  0
   27.5930   16.6950   10.0520 C   0  0  0  0  0  0  0  0  0  0  0  0
   25.0180   11.9600    8.2500 O   0  0  0  0  0  0  0  0  0  0  0  0
   23.5980   11.8290    8.3330 C   0  0  1  0  0  0  0  0  0  0  0  0
   23.0120   13.1420    7.7570 C   0  0  2  0  0  0  0  0  0  0  0  0
   23.4330   14.4010    8.5240 C   0  0  1  0  0  0  0  0  0  0  0  0
   23.1550   10.6320    7.4490 C   0  0  0  0  0  0  0  0  0  0  0  0
   21.6430   10.6940    7.1010 C   0  0  0  0  0  0  0  0  0  0  0  0
   21.1690   12.1000    6.6390 C   0  0  0  0  0  0  0  0  0  0  0  0
   21.6020   13.1060    7.5750 O   0  0  0  0  0  0  0  0  0  0  0  0
   22.5820   14.7050    9.6740 N   0  0  0  0  0  0  0  0  0  0  0  0
   21.9890   15.8360    9.4760 C   0  0  1  0  0  3  0  0  0  0  0  0
   22.2750   16.4260    8.2870 N   0  0  0  0  0  0  0  0  0  0  0  0
   23.1550   15.6220    7.6460 C   0  0  0  0  0  0  0  0  0  0  0  0
   23.6700   15.7870    6.5380 O   0  0  0  0  0  0  0  0  0  0  0  0
   21.1140   16.4680   10.3360 N   0  0  0  0  0  0  0  0  0  0  0  0
   23.1750   11.5710    9.8070 C   0  0  0  0  0  0  0  0  0  0  0  0
   21.7760   17.6970    7.7620 C   0  0  0  0  0  0  0  0  0  0  0  0
   28.7080   17.1820    9.3140 C   0  0  0  0  0  0  0  0  0  0  0  0
   29.3010   18.4030    9.7250 C   0  0  0  0  0  0  0  0  0  0  0  0
   28.7600   19.1020   10.8350 C   0  0  0  0  0  0  0  0  0  0  0  0
   27.6900   18.6440   11.5210 N   0  0  0  0  0  0  0  0  0  0  0  0
   27.1210   17.4780   11.1390 C   0  0  0  0  0  0  0  0  0  0  0  0
   26.0610   17.0630   11.8640 F   0  0  0  0  0  0  0  0  0  0  0  0
   28.7497   14.2488    9.6761 H   0  0  0  0  0  0  0  0  0  0  0  0
   27.5954   12.1996    8.8530 H   0  0  0  0  0  0  0  0  0  0  0  0
   25.0202   16.4292    9.4315 H   0  0  0  0  0  0  0  0  0  0  0  0
   23.4461   13.2405    6.7511 H   0  0  0  0  0  0  0  0  0  0  0  0
   23.3565    9.6964    7.9912 H   0  0  0  0  0  0  0  0  0  0  0  0
   23.7353   10.6466    6.5146 H   0  0  0  0  0  0  0  0  0  0  0  0
   21.0683   10.4094    7.9947 H   0  0  0  0  0  0  0  0  0  0  0  0
   21.4424    9.9761    6.2921 H   0  0  0  0  0  0  0  0  0  0  0  0
   20.0708   12.1106    6.5772 H   0  0  0  0  0  0  0  0  0  0  0  0
   21.5942   12.3190    5.6484 H   0  0  0  0  0  0  0  0  0  0  0  0
   22.4727   14.1119   10.5090 H   0  0  0  0  0  0  0  0  0  0  0  0
   20.8829   16.0383   11.2431 H   0  0  0  0  0  0  0  0  0  0  0  0
   20.6920   17.3694   10.0707 H   0  0  0  0  0  0  0  0  0  0  0  0
   22.0809   11.4714    9.8624 H   0  0  0  0  0  0  0  0  0  0  0  0
   23.4985   12.4146   10.4344 H   0  0  0  0  0  0  0  0  0  0  0  0
   23.6462   10.6445   10.1669 H   0  0  0  0  0  0  0  0  0  0  0  0
   21.0757   18.1423    8.4840 H   0  0  0  0  0  0  0  0  0  0  0  0
   21.2568   17.5213    6.8083 H   0  0  0  0  0  0  0  0  0  0  0  0
   22.6202   18.3831    7.5990 H   0  0  0  0  0  0  0  0  0  0  0  0
   29.0934   16.6349    8.4613 H   0  0  0  0  0  0  0  0  0  0  0  0
   30.1602   18.7988    9.1957 H   0  0  0  0  0  0  0  0  0  0  0  0
   29.2203   20.0340   11.1426 H   0  0  0  0  0  0  0  0  0  0  0  0
  1  2  2  0  0  0  0
  1  6  1  0  0  0  0
  1  7  1  0  0  0  0
  2  3  1  0  0  0  0
  2 30  1  0  0  0  0
  3  4  2  0  0  0  0
  3 31  1  0  0  0  0
  4  5  1  0  0  0  0
  4  8  1  0  0  0  0
  5  6  2  0  0  0  0
  6 32  1  0  0  0  0
  7 24  2  0  0  0  0
  7 28  1  0  0  0  0
  8  9  1  0  0  0  0
  9 10  1  0  0  0  0
  9 12  1  0  0  0  0
  9 22  1  1  0  0  0
 10 11  1  0  0  0  0
 10 15  1  0  0  0  0
 10 33  1  6  0  0  0
 11  5  1  1  0  0  0
 11 16  1  0  0  0  0
 11 19  1  0  0  0  0
 12 13  1  0  0  0  0
 12 34  1  0  0  0  0
 12 35  1  0  0  0  0
 13 14  1  0  0  0  0
 13 36  1  0  0  0  0
 13 37  1  0  0  0  0
 14 15  1  0  0  0  0
 14 38  1  0  0  0  0
 14 39  1  0  0  0  0
 16 17  1  0  0  0  0
 16 40  1  0  0  0  0
 17 18  1  0  0  0  0
 17 21  1  6  0  0  0
 18 19  1  0  0  0  0
 18 23  1  0  0  0  0
 19 20  2  0  0  0  0
 21 41  1  0  0  0  0
 21 42  1  0  0  0  0
 22 43  1  0  0  0  0
 22 44  1  0  0  0  0
 22 45  1  0  0  0  0
 23 46  1  0  0  0  0
 23 47  1  0  0  0  0
 23 48  1  0  0  0  0
 24 25  1  0  0  0  0
 24 49  1  0  0  0  0
 25 26  2  0  0  0  0
 25 50  1  0  0  0  0
 26 27  1  0  0  0  0
 26 51  1  0  0  0  0
 27 28  2  0  0  0  0
 28 29  1  0  0  0  0
M  END
