4rrq_ligand
 OpenBabel08222323353D

 45 47  0  0  1  0  0  0  0  0999 V2000
   25.9600    6.5750   -3.4680 O   0  0  0  0  0  0  0  0  0  0  0  0
   25.3730    7.8040   -3.9060 C   0  0  0  0  0  0  0  0  0  0  0  0
   24.2520    7.5170   -4.9090 C   0  0  1  0  0  0  0  0  0  0  0  0
   24.7680    6.7550   -6.0150 O   0  0  0  0  0  0  0  0  0  0  0  0
   23.9440    5.5940   -6.2190 C   0  0  1  0  0  0  0  0  0  0  0  0
   24.7300    4.4050   -5.8140 N   0  0  0  0  0  0  0  0  0  0  0  0
   24.2760    3.2420   -5.3520 C   0  0  0  0  0  0  0  0  0  0  0  0
   23.0570    2.7900   -5.0190 N   0  0  0  0  0  0  0  0  0  0  0  0
   22.8880    1.5550   -4.5760 C   0  0  0  0  0  0  0  0  0  0  0  0
   23.9120    0.7260   -4.4510 N   0  0  0  0  0  0  0  0  0  0  0  0
   25.1590    1.1070   -4.7640 C   0  0  0  0  0  0  0  0  0  0  0  0
   26.1770    0.2560   -4.6570 N   0  0  0  0  0  0  0  0  0  0  0  0
   25.3720    2.4000   -5.2280 C   0  0  0  0  0  0  0  0  0  0  0  0
   26.4490    3.0790   -5.6090 N   0  0  0  0  0  0  0  0  0  0  0  0
   26.0500    4.2980   -5.9600 C   0  0  0  0  0  0  0  0  0  0  0  0
   22.6540    5.8450   -5.4350 C   0  0  2  0  0  0  0  0  0  0  0  0
   21.7750    6.6620   -6.2130 O   0  0  0  0  0  0  0  0  0  0  0  0
   23.1950    6.6350   -4.2460 C   0  0  2  0  0  0  0  0  0  0  0  0
   22.1690    7.4800   -3.6160 N   0  0  0  0  0  0  0  0  0  0  0  0
   19.4280    7.3890   -1.1960 N   0  3  0  0  0  0  0  0  0  0  0  0
   20.4260    8.0990   -2.0090 C   0  0  1  0  0  0  0  0  0  0  0  0
   21.1340    9.1480   -1.1480 C   0  0  0  0  0  0  0  0  0  0  0  0
   20.1810   10.1080   -0.6830 O   0  0  0  0  0  0  0  0  0  0  0  0
   21.4540    7.1070   -2.5590 C   0  0  0  0  0  0  0  0  0  0  0  0
   21.5730    5.8980   -1.9490 O   0  0  0  0  0  0  0  0  0  0  0  0
   26.6541    6.7607   -2.8465 H   0  0  0  0  0  0  0  0  0  0  0  0
   26.1429    8.4250   -4.3872 H   0  0  0  0  0  0  0  0  0  0  0  0
   24.9587    8.3398   -3.0392 H   0  0  0  0  0  0  0  0  0  0  0  0
   23.8094    8.4608   -5.2600 H   0  0  0  0  0  0  0  0  0  0  0  0
   23.6903    5.4911   -7.2844 H   0  0  0  0  0  0  0  0  0  0  0  0
   21.8931    1.2160   -4.3107 H   0  0  0  0  0  0  0  0  0  0  0  0
   27.1304    0.5604   -4.9004 H   0  0  0  0  0  0  0  0  0  0  0  0
   26.0113   -0.7068   -4.3308 H   0  0  0  0  0  0  0  0  0  0  0  0
   26.7056    5.0919   -6.3146 H   0  0  0  0  0  0  0  0  0  0  0  0
   22.1542    4.9137   -5.1302 H   0  0  0  0  0  0  0  0  0  0  0  0
   20.9745    6.8173   -5.7256 H   0  0  0  0  0  0  0  0  0  0  0  0
   23.6363    5.9659   -3.4926 H   0  0  0  0  0  0  0  0  0  0  0  0
   21.9998    8.3858   -4.0045 H   0  0  0  0  0  0  0  0  0  0  0  0
   18.7554    8.0489   -0.8379 H   0  0  0  0  0  0  0  0  0  0  0  0
   19.8879    6.9273   -0.4270 H   0  0  0  0  0  0  0  0  0  0  0  0
   18.9563    6.7041   -1.7656 H   0  0  0  0  0  0  0  0  0  0  0  0
   19.9203    8.5987   -2.8484 H   0  0  0  0  0  0  0  0  0  0  0  0
   21.9029    9.6563   -1.7483 H   0  0  0  0  0  0  0  0  0  0  0  0
   21.6079    8.6553   -0.2862 H   0  0  0  0  0  0  0  0  0  0  0  0
   20.6226   10.7579   -0.1490 H   0  0  0  0  0  0  0  0  0  0  0  0
  1 26  1  0  0  0  0
  2  1  1  0  0  0  0
  2 27  1  0  0  0  0
  2 28  1  0  0  0  0
  3  2  1  0  0  0  0
  3  4  1  0  0  0  0
  3 29  1  6  0  0  0
  5  4  1  0  0  0  0
  5  6  1  0  0  0  0
  5 30  1  6  0  0  0
  6  7  1  0  0  0  0
  6 15  1  0  0  0  0
  7  8  2  0  0  0  0
  7 13  1  0  0  0  0
  8  9  1  0  0  0  0
  9 10  2  0  0  0  0
  9 31  1  0  0  0  0
 11 10  1  0  0  0  0
 11 12  1  0  0  0  0
 12 32  1  0  0  0  0
 12 33  1  0  0  0  0
 13 11  2  0  0  0  0
 14 13  1  0  0  0  0
 15 14  2  0  0  0  0
 15 34  1  0  0  0  0
 16  5  1  0  0  0  0
 16 17  1  0  0  0  0
 16 35  1  1  0  0  0
 17 36  1  0  0  0  0
 18  3  1  0  0  0  0
 18 16  1  0  0  0  0
 18 37  1  1  0  0  0
 19 18  1  0  0  0  0
 19 38  1  0  0  0  0
 20 39  1  0  0  0  0
 20 40  1  0  0  0  0
 20 41  1  0  0  0  0
 21 20  1  0  0  0  0
 21 22  1  0  0  0  0
 21 24  1  0  0  0  0
 21 42  1  6  0  0  0
 22 23  1  0  0  0  0
 22 43  1  0  0  0  0
 22 44  1  0  0  0  0
 23 45  1  0  0  0  0
 24 19  1  0  0  0  0
 24 25  2  0  0  0  0
M  CHG  1  20   1
M  END
