4rrr_ligand
 OpenBabel08222323353D

 48 50  0  0  1  0  0  0  0  0999 V2000
   -7.9850    4.1970   14.1550 C   0  0  0  0  0  0  0  0  0  0  0  0
   -7.9310    2.0520   12.9710 N   0  3  0  0  0  0  0  0  0  0  0  0
   -9.2100    4.4690   13.6320 O   0  0  0  0  0  0  0  0  0  0  0  0
  -14.0350    7.2120   16.6140 N   0  0  0  0  0  0  0  0  0  0  0  0
  -13.3870    6.0640   16.6980 C   0  0  0  0  0  0  0  0  0  0  0  0
  -12.1200    6.0040   17.0710 N   0  0  0  0  0  0  0  0  0  0  0  0
  -11.4460    7.1210   17.3760 C   0  0  0  0  0  0  0  0  0  0  0  0
  -12.0910    8.3470   17.2970 C   0  0  0  0  0  0  0  0  0  0  0  0
  -13.4250    8.3700   16.9070 C   0  0  0  0  0  0  0  0  0  0  0  0
  -14.0870    9.5210   16.8460 N   0  0  0  0  0  0  0  0  0  0  0  0
  -11.2160    9.2880   17.6320 N   0  0  0  0  0  0  0  0  0  0  0  0
  -10.0640    8.6840   17.9140 C   0  0  0  0  0  0  0  0  0  0  0  0
   -7.5020    4.7720   15.2530 N   0  0  0  0  0  0  0  0  0  0  0  0
  -10.1990    7.3670   17.7680 N   0  0  0  0  0  0  0  0  0  0  0  0
   -7.1000    3.1680   13.4470 C   0  0  1  0  0  0  0  0  0  0  0  0
   -6.3950    3.8210   12.2560 C   0  0  2  0  0  0  0  0  0  0  0  0
   -5.4170    2.9180   11.7330 O   0  0  0  0  0  0  0  0  0  0  0  0
   -9.1510    6.3770   18.1070 C   0  0  1  0  0  0  0  0  0  0  0  0
   -9.0640    5.1800   17.1580 C   0  0  2  0  0  0  0  0  0  0  0  0
   -8.3280    4.1320   17.7950 O   0  0  0  0  0  0  0  0  0  0  0  0
   -8.2330    5.7850   16.0290 C   0  0  1  0  0  0  0  0  0  0  0  0
   -7.2290    6.6450   16.7970 C   0  0  2  0  0  0  0  0  0  0  0  0
   -7.8810    7.0450   18.0150 O   0  0  0  0  0  0  0  0  0  0  0  0
   -6.8700    7.8670   15.9470 C   0  0  0  0  0  0  0  0  0  0  0  0
   -8.0610    8.5560   15.5560 O   0  0  0  0  0  0  0  0  0  0  0  0
   -5.7620    5.1590   12.6440 C   0  0  0  0  0  0  0  0  0  0  0  0
   -8.3959    1.6211   13.7548 H   0  0  0  0  0  0  0  0  0  0  0  0
   -7.3475    1.3711   12.5107 H   0  0  0  0  0  0  0  0  0  0  0  0
   -8.6193    2.3988   12.3214 H   0  0  0  0  0  0  0  0  0  0  0  0
  -13.9086    5.1455   16.4543 H   0  0  0  0  0  0  0  0  0  0  0  0
  -13.6073   10.4037   17.0734 H   0  0  0  0  0  0  0  0  0  0  0  0
  -15.0797    9.5302   16.5713 H   0  0  0  0  0  0  0  0  0  0  0  0
   -9.1491    9.1902   18.2182 H   0  0  0  0  0  0  0  0  0  0  0  0
   -6.5925    4.5007   15.5678 H   0  0  0  0  0  0  0  0  0  0  0  0
   -6.3467    2.7882   14.1529 H   0  0  0  0  0  0  0  0  0  0  0  0
   -7.1436    4.0139   11.4734 H   0  0  0  0  0  0  0  0  0  0  0  0
   -4.9782    3.3218   10.9934 H   0  0  0  0  0  0  0  0  0  0  0  0
   -9.3245    6.0132   19.1305 H   0  0  0  0  0  0  0  0  0  0  0  0
  -10.0491    4.8250   16.8210 H   0  0  0  0  0  0  0  0  0  0  0  0
   -8.2709    3.3858   17.2098 H   0  0  0  0  0  0  0  0  0  0  0  0
   -8.8595    6.3883   15.3556 H   0  0  0  0  0  0  0  0  0  0  0  0
   -6.3194    6.0694   17.0236 H   0  0  0  0  0  0  0  0  0  0  0  0
   -6.3268    7.5392   15.0484 H   0  0  0  0  0  0  0  0  0  0  0  0
   -6.2327    8.5448   16.5339 H   0  0  0  0  0  0  0  0  0  0  0  0
   -7.8297    9.3121   15.0295 H   0  0  0  0  0  0  0  0  0  0  0  0
   -5.2658    5.5981   11.7660 H   0  0  0  0  0  0  0  0  0  0  0  0
   -5.0213    4.9969   13.4409 H   0  0  0  0  0  0  0  0  0  0  0  0
   -6.5439    5.8439   13.0040 H   0  0  0  0  0  0  0  0  0  0  0  0
  1  3  2  0  0  0  0
  1 15  1  0  0  0  0
  2 27  1  0  0  0  0
  2 28  1  0  0  0  0
  2 29  1  0  0  0  0
  5  4  2  0  0  0  0
  5 30  1  0  0  0  0
  6  5  1  0  0  0  0
  7  6  2  0  0  0  0
  7  8  1  0  0  0  0
  8  9  2  0  0  0  0
  9  4  1  0  0  0  0
  9 10  1  0  0  0  0
 10 31  1  0  0  0  0
 10 32  1  0  0  0  0
 11  8  1  0  0  0  0
 12 11  2  0  0  0  0
 12 33  1  0  0  0  0
 13  1  1  0  0  0  0
 13 34  1  0  0  0  0
 14  7  1  0  0  0  0
 14 12  1  0  0  0  0
 15  2  1  0  0  0  0
 15 16  1  0  0  0  0
 15 35  1  1  0  0  0
 16 17  1  0  0  0  0
 16 26  1  0  0  0  0
 16 36  1  6  0  0  0
 17 37  1  0  0  0  0
 18 14  1  0  0  0  0
 18 23  1  0  0  0  0
 18 38  1  1  0  0  0
 19 18  1  0  0  0  0
 19 20  1  0  0  0  0
 19 21  1  0  0  0  0
 19 39  1  6  0  0  0
 20 40  1  0  0  0  0
 21 13  1  0  0  0  0
 21 22  1  0  0  0  0
 21 41  1  6  0  0  0
 22 23  1  0  0  0  0
 22 24  1  0  0  0  0
 22 42  1  1  0  0  0
 24 25  1  0  0  0  0
 24 43  1  0  0  0  0
 24 44  1  0  0  0  0
 25 45  1  0  0  0  0
 26 46  1  0  0  0  0
 26 47  1  0  0  0  0
 26 48  1  0  0  0  0
M  CHG  1   2   1
M  END
