4rrv_ligand
 OpenBabel08222323353D

142144  0  0  1  0  0  0  0  0999 V2000
  -13.0960   23.1860  -13.9170 N   0  3  0  0  0  0  0  0  0  0  0  0
  -12.9930   22.8710  -12.5010 C   0  0  2  0  0  0  0  0  0  0  0  0
  -12.1340   21.6180  -12.3090 C   0  0  0  0  0  0  0  0  0  0  0  0
  -11.2090   21.3760  -13.0870 O   0  0  0  0  0  0  0  0  0  0  0  0
  -14.3880   22.6720  -11.9070 C   0  0  0  0  0  0  0  0  0  0  0  0
  -15.1480   21.4780  -12.4700 C   0  0  0  0  0  0  0  0  0  0  0  0
  -16.8380   21.8950  -12.9470 S   0  0  0  0  0  0  0  0  0  0  0  0
  -16.5260   23.0100  -14.3170 C   0  0  0  0  0  0  0  0  0  0  0  0
  -12.4390   20.8320  -11.2750 N   0  0  0  0  0  0  0  0  0  0  0  0
  -11.6510   19.6450  -10.9290 C   0  0  2  0  0  0  0  0  0  0  0  0
  -10.2160   20.0250  -10.5500 C   0  0  0  0  0  0  0  0  0  0  0  0
   -9.2990   19.2110  -10.6400 O   0  0  0  0  0  0  0  0  0  0  0  0
  -11.6580   18.6220  -12.0730 C   0  0  0  0  0  0  0  0  0  0  0  0
  -13.0310   18.2650  -12.5570 C   0  0  0  0  0  0  0  0  0  0  0  0
  -13.9030   17.5800  -11.7360 C   0  0  0  0  0  0  0  0  0  0  0  0
  -13.4450   18.6050  -13.8310 C   0  0  0  0  0  0  0  0  0  0  0  0
  -15.1630   17.2470  -12.1660 C   0  0  0  0  0  0  0  0  0  0  0  0
  -14.7100   18.2740  -14.2720 C   0  0  0  0  0  0  0  0  0  0  0  0
  -15.5690   17.5910  -13.4360 C   0  0  0  0  0  0  0  0  0  0  0  0
  -10.0390   21.2640  -10.1030 N   0  0  0  0  0  0  0  0  0  0  0  0
   -8.7190   21.7830   -9.7780 C   0  0  2  0  0  0  0  0  0  0  0  0
   -8.1360   21.0890   -8.5520 C   0  0  0  0  0  0  0  0  0  0  0  0
   -6.9210   20.9690   -8.4170 O   0  0  0  0  0  0  0  0  0  0  0  0
   -8.7930   23.2940   -9.5370 C   0  0  0  0  0  0  0  0  0  0  0  0
   -9.0120   20.6290   -7.6650 N   0  0  0  0  0  0  0  0  0  0  0  0
   -8.5930   20.0070   -6.4150 C   0  0  2  0  0  0  0  0  0  0  0  0
   -8.8180   18.5050   -6.4700 C   0  0  0  0  0  0  0  0  0  0  0  0
   -8.9810   17.8550   -5.4360 O   0  0  0  0  0  0  0  0  0  0  0  0
   -9.3740   20.5990   -5.2410 C   0  0  0  0  0  0  0  0  0  0  0  0
   -8.8220   17.9480   -7.6760 N   0  0  0  0  0  0  0  0  0  0  0  0
   -9.1680   16.5430   -7.8370 C   0  0  2  0  0  0  0  0  0  0  0  0
   -7.9580   15.6180   -7.7280 C   0  0  0  0  0  0  0  0  0  0  0  0
   -8.0320   14.5590   -7.1010 O   0  0  0  0  0  0  0  0  0  0  0  0
   -9.8820   16.2910   -9.1630 C   0  0  0  0  0  0  0  0  0  0  0  0
  -10.2450   14.8610   -9.3580 C   0  0  0  0  0  0  0  0  0  0  0  0
  -11.3040   14.3000   -8.6560 C   0  0  0  0  0  0  0  0  0  0  0  0
   -9.5040   14.0570  -10.1980 C   0  0  0  0  0  0  0  0  0  0  0  0
  -11.6210   12.9720   -8.8060 C   0  0  0  0  0  0  0  0  0  0  0  0
   -9.8270   12.7250  -10.3550 C   0  0  0  0  0  0  0  0  0  0  0  0
  -10.8790   12.1830   -9.6510 C   0  0  0  0  0  0  0  0  0  0  0  0
   -6.8450   16.0190   -8.3310 N   0  0  0  0  0  0  0  0  0  0  0  0
   -5.6640   15.1610   -8.3780 C   0  0  2  0  0  0  0  0  0  0  0  0
   -5.1320   14.8500   -6.9790 C   0  0  0  0  0  0  0  0  0  0  0  0
   -5.1350   15.7040   -6.0890 O   0  0  0  0  0  0  0  0  0  0  0  0
   -4.5850   15.7870   -9.2570 C   0  0  0  0  0  0  0  0  0  0  0  0
   -5.0570   15.9960  -10.6820 C   0  0  0  0  0  0  0  0  0  0  0  0
   -6.1900   15.5720  -11.0020 O   0  5  0  0  0  0  0  0  0  0  0  0
   -4.3020   16.5800  -11.4800 O   0  0  0  0  0  0  0  0  0  0  0  0
   -4.6760   13.6140   -6.8040 N   0  0  0  0  0  0  0  0  0  0  0  0
   -4.3980   13.0600   -5.4890 C   0  0  2  0  0  0  0  0  0  0  0  0
   -3.3570   11.9600   -5.6070 C   0  0  0  0  0  0  0  0  0  0  0  0
   -3.3720   11.1810   -6.5500 O   0  0  0  0  0  0  0  0  0  0  0  0
   -5.6920   12.4660   -4.8970 C   0  0  0  0  0  0  0  0  0  0  0  0
   -5.5030   11.7140   -3.6060 C   0  0  0  0  0  0  0  0  0  0  0  0
   -5.1590   12.3790   -2.4390 C   0  0  0  0  0  0  0  0  0  0  0  0
   -5.6780   10.3320   -3.5520 C   0  0  0  0  0  0  0  0  0  0  0  0
   -4.9900   11.6910   -1.2530 C   0  0  0  0  0  0  0  0  0  0  0  0
   -5.5050    9.6380   -2.3760 C   0  0  0  0  0  0  0  0  0  0  0  0
   -5.1580   10.3240   -1.2290 C   0  0  0  0  0  0  0  0  0  0  0  0
   -4.9940    9.6410   -0.0480 O   0  0  0  0  0  0  0  0  0  0  0  0
   -2.4410   11.9150   -4.6500 N   0  0  0  0  0  0  0  0  0  0  0  0
   -1.5410   10.7850   -4.5220 C   0  0  2  0  0  0  0  0  0  0  0  0
   -1.5340   10.4280   -3.0540 C   0  0  0  0  0  0  0  0  0  0  0  0
   -1.2460   11.2790   -2.2030 O   0  0  0  0  0  0  0  0  0  0  0  0
   -0.0920   11.1340   -4.9440 C   0  0  2  0  0  0  0  0  0  0  0  0
   -0.0430   11.6560   -6.3910 C   0  0  0  0  0  0  0  0  0  0  0  0
    0.8270    9.9260   -4.7450 C   0  0  0  0  0  0  0  0  0  0  0  0
   -0.0070   10.5750   -7.4760 C   0  0  0  0  0  0  0  0  0  0  0  0
   -1.8980    9.1890   -2.7540 N   0  0  0  0  0  0  0  0  0  0  0  0
   -1.5880    8.6250   -1.4620 C   0  0  2  0  0  0  0  0  0  0  0  0
   -0.0730    8.7680   -1.3560 C   0  0  0  0  0  0  0  0  0  0  0  0
    0.6660    7.7940   -1.3870 O   0  5  0  0  0  0  0  0  0  0  0  0
   -2.0200    7.1590   -1.3830 C   0  0  0  0  0  0  0  0  0  0  0  0
  -13.6622   24.0112  -14.0373 H   0  0  0  0  0  0  0  0  0  0  0  0
  -13.5219   22.4125  -14.4032 H   0  0  0  0  0  0  0  0  0  0  0  0
  -12.1753   23.3527  -14.2920 H   0  0  0  0  0  0  0  0  0  0  0  0
  -12.5082   23.7125  -11.9844 H   0  0  0  0  0  0  0  0  0  0  0  0
  -14.9782   23.5791  -12.1038 H   0  0  0  0  0  0  0  0  0  0  0  0
  -14.2826   22.5315  -10.8211 H   0  0  0  0  0  0  0  0  0  0  0  0
  -15.1824   20.6891  -11.7043 H   0  0  0  0  0  0  0  0  0  0  0  0
  -14.6133   21.1058  -13.3563 H   0  0  0  0  0  0  0  0  0  0  0  0
  -17.4834   23.3619  -14.7287 H   0  0  0  0  0  0  0  0  0  0  0  0
  -15.9628   22.4807  -15.0997 H   0  0  0  0  0  0  0  0  0  0  0  0
  -15.9405   23.8713  -13.9628 H   0  0  0  0  0  0  0  0  0  0  0  0
  -13.2351   21.0611  -10.7148 H   0  0  0  0  0  0  0  0  0  0  0  0
  -12.1190   19.1743  -10.0518 H   0  0  0  0  0  0  0  0  0  0  0  0
  -11.1651   17.7040  -11.7204 H   0  0  0  0  0  0  0  0  0  0  0  0
  -11.0910   19.0417  -12.9170 H   0  0  0  0  0  0  0  0  0  0  0  0
  -13.5883   17.3008  -10.7369 H   0  0  0  0  0  0  0  0  0  0  0  0
  -12.7691   19.1371  -14.4906 H   0  0  0  0  0  0  0  0  0  0  0  0
  -15.8380   16.7137  -11.5065 H   0  0  0  0  0  0  0  0  0  0  0  0
  -15.0274   18.5495  -15.2712 H   0  0  0  0  0  0  0  0  0  0  0  0
  -16.5626   17.3254  -13.7786 H   0  0  0  0  0  0  0  0  0  0  0  0
  -10.8360   21.8567   -9.9866 H   0  0  0  0  0  0  0  0  0  0  0  0
   -8.0526   21.5954  -10.6328 H   0  0  0  0  0  0  0  0  0  0  0  0
   -7.7908   23.6758   -9.2923 H   0  0  0  0  0  0  0  0  0  0  0  0
   -9.4776   23.4989   -8.7007 H   0  0  0  0  0  0  0  0  0  0  0  0
   -9.1636   23.7924  -10.4449 H   0  0  0  0  0  0  0  0  0  0  0  0
   -9.9891   20.7121   -7.8611 H   0  0  0  0  0  0  0  0  0  0  0  0
   -7.5208   20.2016   -6.2647 H   0  0  0  0  0  0  0  0  0  0  0  0
   -9.0479   20.1210   -4.3055 H   0  0  0  0  0  0  0  0  0  0  0  0
  -10.4493   20.4204   -5.3886 H   0  0  0  0  0  0  0  0  0  0  0  0
   -9.1865   21.6814   -5.1844 H   0  0  0  0  0  0  0  0  0  0  0  0
   -8.5860   18.4969   -8.4779 H   0  0  0  0  0  0  0  0  0  0  0  0
   -9.8616   16.2824   -7.0240 H   0  0  0  0  0  0  0  0  0  0  0  0
   -9.2187   16.6006   -9.9841 H   0  0  0  0  0  0  0  0  0  0  0  0
  -10.8018   16.8938   -9.1874 H   0  0  0  0  0  0  0  0  0  0  0  0
  -11.8870   14.9172   -7.9821 H   0  0  0  0  0  0  0  0  0  0  0  0
   -8.6621   14.4743  -10.7386 H   0  0  0  0  0  0  0  0  0  0  0  0
  -12.4549   12.5474   -8.2588 H   0  0  0  0  0  0  0  0  0  0  0  0
   -9.2522   12.1046  -11.0331 H   0  0  0  0  0  0  0  0  0  0  0  0
  -11.1219   11.1326   -9.7637 H   0  0  0  0  0  0  0  0  0  0  0  0
   -6.8150   16.9221   -8.7594 H   0  0  0  0  0  0  0  0  0  0  0  0
   -5.9614   14.2075   -8.8388 H   0  0  0  0  0  0  0  0  0  0  0  0
   -3.7080   15.1231   -9.2682 H   0  0  0  0  0  0  0  0  0  0  0  0
   -4.3022   16.7610   -8.8312 H   0  0  0  0  0  0  0  0  0  0  0  0
   -4.5178   13.0422   -7.6090 H   0  0  0  0  0  0  0  0  0  0  0  0
   -4.0209   13.8547   -4.8285 H   0  0  0  0  0  0  0  0  0  0  0  0
   -6.1221   11.7749   -5.6368 H   0  0  0  0  0  0  0  0  0  0  0  0
   -6.3958   13.2912   -4.7135 H   0  0  0  0  0  0  0  0  0  0  0  0
   -5.0207   13.4540   -2.4575 H   0  0  0  0  0  0  0  0  0  0  0  0
   -5.9551    9.7947   -4.4517 H   0  0  0  0  0  0  0  0  0  0  0  0
   -4.7267   12.2238   -0.3465 H   0  0  0  0  0  0  0  0  0  0  0  0
   -5.6399    8.5627   -2.3505 H   0  0  0  0  0  0  0  0  0  0  0  0
   -5.8066    9.2046    0.1796 H   0  0  0  0  0  0  0  0  0  0  0  0
   -2.3691   12.6748   -4.0038 H   0  0  0  0  0  0  0  0  0  0  0  0
   -1.9069    9.9427   -5.1275 H   0  0  0  0  0  0  0  0  0  0  0  0
    0.2662   11.9403   -4.2871 H   0  0  0  0  0  0  0  0  0  0  0  0
    0.8596   12.2755   -6.4985 H   0  0  0  0  0  0  0  0  0  0  0  0
   -0.9357   12.2764   -6.5589 H   0  0  0  0  0  0  0  0  0  0  0  0
    0.7630    9.5846   -3.7013 H   0  0  0  0  0  0  0  0  0  0  0  0
    1.8640   10.2125   -4.9741 H   0  0  0  0  0  0  0  0  0  0  0  0
    0.5143    9.1128   -5.4165 H   0  0  0  0  0  0  0  0  0  0  0  0
    0.0266   11.0512   -8.4670 H   0  0  0  0  0  0  0  0  0  0  0  0
   -0.9085    9.9493   -7.4003 H   0  0  0  0  0  0  0  0  0  0  0  0
    0.8868    9.9484   -7.3398 H   0  0  0  0  0  0  0  0  0  0  0  0
   -2.3917    8.6403   -3.4287 H   0  0  0  0  0  0  0  0  0  0  0  0
   -2.0866    9.1914   -0.6616 H   0  0  0  0  0  0  0  0  0  0  0  0
    0.4291    9.9171   -1.2336 O   0  0  0  0  0  0  0  0  0  0  0  0
   -1.7718    6.7567   -0.3898 H   0  0  0  0  0  0  0  0  0  0  0  0
   -1.4933    6.5794   -2.1554 H   0  0  0  0  0  0  0  0  0  0  0  0
   -3.1053    7.0872   -1.5469 H   0  0  0  0  0  0  0  0  0  0  0  0
  1  2  1  0  0  0  0
  1 74  1  0  0  0  0
  1 75  1  0  0  0  0
  1 76  1  0  0  0  0
  2  3  1  0  0  0  0
  2  5  1  0  0  0  0
  2 77  1  1  0  0  0
  3  4  2  0  0  0  0
  3  9  1  0  0  0  0
  5  6  1  0  0  0  0
  5 78  1  0  0  0  0
  5 79  1  0  0  0  0
  6  7  1  0  0  0  0
  6 80  1  0  0  0  0
  6 81  1  0  0  0  0
  7  8  1  0  0  0  0
  8 82  1  0  0  0  0
  8 83  1  0  0  0  0
  8 84  1  0  0  0  0
  9 10  1  0  0  0  0
  9 85  1  0  0  0  0
 10 11  1  0  0  0  0
 10 13  1  0  0  0  0
 10 86  1  1  0  0  0
 11 12  2  0  0  0  0
 11 20  1  0  0  0  0
 13 14  1  0  0  0  0
 13 87  1  0  0  0  0
 13 88  1  0  0  0  0
 14 15  2  0  0  0  0
 14 16  1  0  0  0  0
 15 17  1  0  0  0  0
 15 89  1  0  0  0  0
 16 18  2  0  0  0  0
 16 90  1  0  0  0  0
 17 19  2  0  0  0  0
 17 91  1  0  0  0  0
 18 19  1  0  0  0  0
 18 92  1  0  0  0  0
 19 93  1  0  0  0  0
 20 21  1  0  0  0  0
 20 94  1  0  0  0  0
 21 22  1  0  0  0  0
 21 24  1  0  0  0  0
 21 95  1  6  0  0  0
 22 23  2  0  0  0  0
 22 25  1  0  0  0  0
 24 96  1  0  0  0  0
 24 97  1  0  0  0  0
 24 98  1  0  0  0  0
 25 26  1  0  0  0  0
 25 99  1  0  0  0  0
 26 27  1  0  0  0  0
 26 29  1  0  0  0  0
 26100  1  1  0  0  0
 27 28  2  0  0  0  0
 27 30  1  0  0  0  0
 29101  1  0  0  0  0
 29102  1  0  0  0  0
 29103  1  0  0  0  0
 30 31  1  0  0  0  0
 30104  1  0  0  0  0
 31 32  1  0  0  0  0
 31 34  1  0  0  0  0
 31105  1  1  0  0  0
 32 33  2  0  0  0  0
 32 41  1  0  0  0  0
 34 35  1  0  0  0  0
 34106  1  0  0  0  0
 34107  1  0  0  0  0
 35 36  2  0  0  0  0
 35 37  1  0  0  0  0
 36 38  1  0  0  0  0
 36108  1  0  0  0  0
 37 39  2  0  0  0  0
 37109  1  0  0  0  0
 38 40  2  0  0  0  0
 38110  1  0  0  0  0
 39 40  1  0  0  0  0
 39111  1  0  0  0  0
 40112  1  0  0  0  0
 41 42  1  0  0  0  0
 41113  1  0  0  0  0
 42 43  1  0  0  0  0
 42 45  1  0  0  0  0
 42114  1  6  0  0  0
 43 44  2  0  0  0  0
 43 49  1  0  0  0  0
 45 46  1  0  0  0  0
 45115  1  0  0  0  0
 45116  1  0  0  0  0
 46 47  1  0  0  0  0
 46 48  2  0  0  0  0
 49 50  1  0  0  0  0
 49117  1  0  0  0  0
 50 51  1  0  0  0  0
 50 53  1  0  0  0  0
 50118  1  1  0  0  0
 51 52  2  0  0  0  0
 51 61  1  0  0  0  0
 53 54  1  0  0  0  0
 53119  1  0  0  0  0
 53120  1  0  0  0  0
 54 55  2  0  0  0  0
 54 56  1  0  0  0  0
 55 57  1  0  0  0  0
 55121  1  0  0  0  0
 56 58  2  0  0  0  0
 56122  1  0  0  0  0
 57 59  2  0  0  0  0
 57123  1  0  0  0  0
 58 59  1  0  0  0  0
 58124  1  0  0  0  0
 59 60  1  0  0  0  0
 60125  1  0  0  0  0
 61 62  1  0  0  0  0
 61126  1  0  0  0  0
 62 63  1  0  0  0  0
 62 65  1  0  0  0  0
 62127  1  6  0  0  0
 63 64  2  0  0  0  0
 63 69  1  0  0  0  0
 65 66  1  0  0  0  0
 65 67  1  0  0  0  0
 65128  1  1  0  0  0
 66 68  1  0  0  0  0
 66129  1  0  0  0  0
 66130  1  0  0  0  0
 67131  1  0  0  0  0
 67132  1  0  0  0  0
 67133  1  0  0  0  0
 68134  1  0  0  0  0
 68135  1  0  0  0  0
 68136  1  0  0  0  0
 69 70  1  0  0  0  0
 69137  1  0  0  0  0
 70 71  1  0  0  0  0
 70 73  1  0  0  0  0
 70138  1  1  0  0  0
 71 72  1  0  0  0  0
 71139  2  0  0  0  0
 73140  1  0  0  0  0
 73141  1  0  0  0  0
 73142  1  0  0  0  0
M  CHG  3   1   1  47  -1  72  -1
M  END
