4rs0_ligand
 OpenBabel08222323353D

 32 32  0  0  1  0  0  0  0  0999 V2000
    9.1830  -22.4180  -72.5250 C   0  0  0  0  0  0  0  0  0  0  0  0
    2.9730  -20.4990  -72.6990 C   0  0  0  0  0  0  0  0  0  0  0  0
    2.4440  -21.2090  -71.5000 C   0  0  0  0  0  0  0  0  0  0  0  0
    2.7150  -20.3960  -70.2820 C   0  0  0  0  0  0  0  0  0  0  0  0
    0.9700  -21.3790  -71.6580 C   0  0  0  0  0  0  0  0  0  0  0  0
    8.5900  -21.5200  -73.5610 C   0  0  1  0  0  0  0  0  0  0  0  0
    8.7930  -22.1190  -74.9140 C   0  0  0  0  0  0  0  0  0  0  0  0
    7.1300  -21.2840  -73.3340 C   0  0  0  0  0  0  0  0  0  0  0  0
    6.7130  -20.0750  -72.8040 C   0  0  0  0  0  0  0  0  0  0  0  0
    5.3650  -19.8310  -72.5990 C   0  0  0  0  0  0  0  0  0  0  0  0
    4.4210  -20.7940  -72.9240 C   0  0  0  0  0  0  0  0  0  0  0  0
    4.8330  -22.0050  -73.4650 C   0  0  0  0  0  0  0  0  0  0  0  0
    6.1870  -22.2480  -73.6680 C   0  0  0  0  0  0  0  0  0  0  0  0
    9.9920  -21.9490  -71.6790 O   0  5  0  0  0  0  0  0  0  0  0  0
    8.8900  -23.6440  -72.5010 O   0  0  0  0  0  0  0  0  0  0  0  0
    2.8484  -19.4156  -72.5552 H   0  0  0  0  0  0  0  0  0  0  0  0
    2.4026  -20.8195  -73.5833 H   0  0  0  0  0  0  0  0  0  0  0  0
    2.9266  -22.1929  -71.4052 H   0  0  0  0  0  0  0  0  0  0  0  0
    2.3246  -20.9200  -69.3971 H   0  0  0  0  0  0  0  0  0  0  0  0
    2.2208  -19.4178  -70.3766 H   0  0  0  0  0  0  0  0  0  0  0  0
    3.7997  -20.2498  -70.1726 H   0  0  0  0  0  0  0  0  0  0  0  0
    0.7644  -21.9791  -72.5567 H   0  0  0  0  0  0  0  0  0  0  0  0
    0.4959  -20.3917  -71.7600 H   0  0  0  0  0  0  0  0  0  0  0  0
    0.5631  -21.8916  -70.7739 H   0  0  0  0  0  0  0  0  0  0  0  0
    9.1088  -20.5510  -73.5184 H   0  0  0  0  0  0  0  0  0  0  0  0
    9.8663  -22.2925  -75.0809 H   0  0  0  0  0  0  0  0  0  0  0  0
    8.4093  -21.4304  -75.6812 H   0  0  0  0  0  0  0  0  0  0  0  0
    8.2530  -23.0753  -74.9764 H   0  0  0  0  0  0  0  0  0  0  0  0
    7.4441  -19.3165  -72.5485 H   0  0  0  0  0  0  0  0  0  0  0  0
    5.0461  -18.8824  -72.1824 H   0  0  0  0  0  0  0  0  0  0  0  0
    4.1004  -22.7593  -73.7285 H   0  0  0  0  0  0  0  0  0  0  0  0
    6.5082  -23.1940  -74.0888 H   0  0  0  0  0  0  0  0  0  0  0  0
  1 14  1  0  0  0  0
  1 15  2  0  0  0  0
  2  3  1  0  0  0  0
  2 16  1  0  0  0  0
  2 17  1  0  0  0  0
  3  4  1  0  0  0  0
  3  5  1  0  0  0  0
  3 18  1  0  0  0  0
  4 19  1  0  0  0  0
  4 20  1  0  0  0  0
  4 21  1  0  0  0  0
  5 22  1  0  0  0  0
  5 23  1  0  0  0  0
  5 24  1  0  0  0  0
  6  1  1  0  0  0  0
  6  7  1  0  0  0  0
  6 25  1  1  0  0  0
  7 26  1  0  0  0  0
  7 27  1  0  0  0  0
  7 28  1  0  0  0  0
  8  6  1  0  0  0  0
  8 13  1  0  0  0  0
  9  8  2  0  0  0  0
  9 29  1  0  0  0  0
 10  9  1  0  0  0  0
 10 11  2  0  0  0  0
 10 30  1  0  0  0  0
 11  2  1  0  0  0  0
 11 12  1  0  0  0  0
 12 13  2  0  0  0  0
 12 31  1  0  0  0  0
 13 32  1  0  0  0  0
M  CHG  1  14  -1
M  END
