4rse_ligand
 OpenBabel08222323353D

 52 53  0  0  1  0  0  0  0  0999 V2000
  -35.5600  133.6960    9.1730 O   0  0  0  0  0  0  0  0  0  0  0  0
  -36.7100  132.9970    9.6350 C   0  0  2  0  0  0  0  0  0  0  0  0
  -37.2450  132.2400    8.4230 C   0  0  0  0  0  0  0  0  0  0  0  0
  -36.2850  131.1420    7.9850 C   0  0  0  0  0  0  0  0  0  0  0  0
  -35.1080  131.5750    7.2280 N   0  3  0  0  0  0  0  0  0  0  0  0
  -37.6960  133.9690   10.2500 C   0  0  0  0  0  0  0  0  0  0  0  0
  -37.9300  133.9630   11.6150 C   0  0  0  0  0  0  0  0  0  0  0  0
  -38.8280  134.8490   12.1840 C   0  0  0  0  0  0  0  0  0  0  0  0
  -39.5060  135.7660   11.3980 C   0  0  0  0  0  0  0  0  0  0  0  0
  -38.3610  134.9000    9.4600 C   0  0  0  0  0  0  0  0  0  0  0  0
  -39.2500  135.7960   10.0340 C   0  0  0  0  0  0  0  0  0  0  0  0
  -39.7570  136.6870    9.1250 O   0  0  0  0  0  0  0  0  0  0  0  0
  -40.6860  137.6790    9.5400 C   0  0  0  0  0  0  0  0  0  0  0  0
  -41.0010  138.6240    8.4080 C   0  0  0  0  0  0  0  0  0  0  0  0
  -41.3100  137.9930    7.0340 C   0  0  0  0  0  0  0  0  0  0  0  0
  -40.0090  137.5710    6.3290 C   0  0  0  0  0  0  0  0  0  0  0  0
  -42.2220  136.7690    7.1960 C   0  0  0  0  0  0  0  0  0  0  0  0
  -42.0650  138.9940    6.1470 C   0  0  0  0  0  0  0  0  0  0  0  0
  -41.4090  140.3600    6.1330 C   0  0  0  0  0  0  0  0  0  0  0  0
  -41.3720  140.9420    7.5270 C   0  0  0  0  0  0  0  0  0  0  0  0
  -41.0480  139.9470    8.6110 C   0  0  0  0  0  0  0  0  0  0  0  0
  -40.8060  140.6150    9.9390 C   0  0  0  0  0  0  0  0  0  0  0  0
  -35.1812  134.1896    9.8909 H   0  0  0  0  0  0  0  0  0  0  0  0
  -36.4191  132.2712   10.4087 H   0  0  0  0  0  0  0  0  0  0  0  0
  -37.3830  132.9471    7.5918 H   0  0  0  0  0  0  0  0  0  0  0  0
  -38.2128  131.7863    8.6830 H   0  0  0  0  0  0  0  0  0  0  0  0
  -36.8472  130.4360    7.3561 H   0  0  0  0  0  0  0  0  0  0  0  0
  -35.9308  130.6256    8.8894 H   0  0  0  0  0  0  0  0  0  0  0  0
  -34.5464  130.7720    6.9917 H   0  0  0  0  0  0  0  0  0  0  0  0
  -34.5639  132.2123    7.7882 H   0  0  0  0  0  0  0  0  0  0  0  0
  -35.4037  132.0386    6.3832 H   0  0  0  0  0  0  0  0  0  0  0  0
  -37.4033  133.2557   12.2454 H   0  0  0  0  0  0  0  0  0  0  0  0
  -39.0022  134.8251   13.2536 H   0  0  0  0  0  0  0  0  0  0  0  0
  -40.2235  136.4479   11.8400 H   0  0  0  0  0  0  0  0  0  0  0  0
  -38.1837  134.9255    8.3909 H   0  0  0  0  0  0  0  0  0  0  0  0
  -40.2554  138.2490   10.3765 H   0  0  0  0  0  0  0  0  0  0  0  0
  -41.6140  137.1889    9.8695 H   0  0  0  0  0  0  0  0  0  0  0  0
  -40.2492  137.1242    5.3530 H   0  0  0  0  0  0  0  0  0  0  0  0
  -39.4784  136.8336    6.9492 H   0  0  0  0  0  0  0  0  0  0  0  0
  -39.3694  138.4535    6.1807 H   0  0  0  0  0  0  0  0  0  0  0  0
  -43.1525  137.0693    7.6999 H   0  0  0  0  0  0  0  0  0  0  0  0
  -41.7081  136.0061    7.7992 H   0  0  0  0  0  0  0  0  0  0  0  0
  -42.4590  136.3546    6.2050 H   0  0  0  0  0  0  0  0  0  0  0  0
  -43.0919  139.0988    6.5271 H   0  0  0  0  0  0  0  0  0  0  0  0
  -42.0926  138.6045    5.1186 H   0  0  0  0  0  0  0  0  0  0  0  0
  -41.9821  141.0304    5.4757 H   0  0  0  0  0  0  0  0  0  0  0  0
  -40.3812  140.2644    5.7530 H   0  0  0  0  0  0  0  0  0  0  0  0
  -42.3586  141.3772    7.7439 H   0  0  0  0  0  0  0  0  0  0  0  0
  -40.6090  141.7341    7.5485 H   0  0  0  0  0  0  0  0  0  0  0  0
  -40.5740  139.8518   10.6964 H   0  0  0  0  0  0  0  0  0  0  0  0
  -41.7073  141.1688   10.2406 H   0  0  0  0  0  0  0  0  0  0  0  0
  -39.9599  141.3122    9.8500 H   0  0  0  0  0  0  0  0  0  0  0  0
  1  2  1  0  0  0  0
  1 23  1  0  0  0  0
  2  3  1  0  0  0  0
  2  6  1  0  0  0  0
  2 24  1  1  0  0  0
  3  4  1  0  0  0  0
  3 25  1  0  0  0  0
  3 26  1  0  0  0  0
  4  5  1  0  0  0  0
  4 27  1  0  0  0  0
  4 28  1  0  0  0  0
  5 29  1  0  0  0  0
  5 30  1  0  0  0  0
  5 31  1  0  0  0  0
  6  7  2  0  0  0  0
  6 10  1  0  0  0  0
  7  8  1  0  0  0  0
  7 32  1  0  0  0  0
  8  9  2  0  0  0  0
  8 33  1  0  0  0  0
  9 11  1  0  0  0  0
  9 34  1  0  0  0  0
 10 11  2  0  0  0  0
 10 35  1  0  0  0  0
 11 12  1  0  0  0  0
 12 13  1  0  0  0  0
 13 14  1  0  0  0  0
 13 36  1  0  0  0  0
 13 37  1  0  0  0  0
 14 15  1  0  0  0  0
 14 21  2  0  0  0  0
 15 16  1  0  0  0  0
 15 17  1  0  0  0  0
 15 18  1  0  0  0  0
 16 38  1  0  0  0  0
 16 39  1  0  0  0  0
 16 40  1  0  0  0  0
 17 41  1  0  0  0  0
 17 42  1  0  0  0  0
 17 43  1  0  0  0  0
 18 19  1  0  0  0  0
 18 44  1  0  0  0  0
 18 45  1  0  0  0  0
 19 20  1  0  0  0  0
 19 46  1  0  0  0  0
 19 47  1  0  0  0  0
 20 21  1  0  0  0  0
 20 48  1  0  0  0  0
 20 49  1  0  0  0  0
 21 22  1  0  0  0  0
 22 50  1  0  0  0  0
 22 51  1  0  0  0  0
 22 52  1  0  0  0  0
M  CHG  1   5   1
M  END
