4rsp_ligand
 OpenBabel08222323353D

 97 97  0  0  1  0  0  0  0  0999 V2000
  -23.9000  -10.4190    0.6950 O   0  0  0  0  0  0  0  0  0  0  0  0
  -23.3740  -10.5510   -0.3940 C   0  0  0  0  0  0  0  0  0  0  0  0
  -24.1440  -10.8590   -1.5600 O   0  0  0  0  0  0  0  0  0  0  0  0
  -25.3550  -11.6340   -1.4540 C   0  0  0  0  0  0  0  0  0  0  0  0
  -25.0720  -12.9040   -0.6980 C   0  0  0  0  0  0  0  0  0  0  0  0
  -25.6900  -11.9250   -2.9310 C   0  0  0  0  0  0  0  0  0  0  0  0
  -26.4490  -10.8050   -0.8210 C   0  0  0  0  0  0  0  0  0  0  0  0
  -22.2650   -9.7150   -0.7830 N   0  0  0  0  0  0  0  0  0  0  0  0
  -21.6370   -8.8800    0.1830 C   0  0  2  0  0  0  0  0  0  0  0  0
  -22.6330   -7.7870    0.5420 C   0  0  0  0  0  0  0  0  0  0  0  0
  -23.5830   -7.4970   -0.1780 O   0  0  0  0  0  0  0  0  0  0  0  0
  -20.3660   -8.3290   -0.4070 C   0  0  0  0  0  0  0  0  0  0  0  0
  -20.6730   -7.8110   -1.6740 O   0  0  0  0  0  0  0  0  0  0  0  0
  -22.4510   -7.1000    1.8060 N   0  0  0  0  0  0  0  0  0  0  0  0
  -23.3520   -6.0960    2.2060 C   0  0  2  0  0  0  0  0  0  0  0  0
  -22.5800   -4.8030    2.3730 C   0  0  0  0  0  0  0  0  0  0  0  0
  -21.6090   -4.7820    3.0890 O   0  0  0  0  0  0  0  0  0  0  0  0
  -23.8530   -6.4820    3.6040 C   0  0  0  0  0  0  0  0  0  0  0  0
  -24.7920   -5.3920    4.2050 C   0  0  0  0  0  0  0  0  0  0  0  0
  -24.5480   -7.8610    3.5930 C   0  0  0  0  0  0  0  0  0  0  0  0
  -23.0050   -3.6000    1.7120 N   0  0  0  0  0  0  0  0  0  0  0  0
  -22.2510   -2.4100    1.9110 C   0  0  2  0  0  0  0  0  0  0  0  0
  -22.6360   -1.9090    3.3120 C   0  0  0  0  0  0  0  0  0  0  0  0
  -23.7860   -1.8980    3.6950 O   0  0  0  0  0  0  0  0  0  0  0  0
  -22.6210   -1.3660    0.8610 C   0  0  0  0  0  0  0  0  0  0  0  0
  -22.1570   -1.8470   -0.5470 C   0  0  0  0  0  0  0  0  0  0  0  0
  -22.6500   -0.8510   -1.6160 C   0  0  0  0  0  0  0  0  0  0  0  0
  -20.6450   -1.9960   -0.5730 C   0  0  0  0  0  0  0  0  0  0  0  0
  -25.0900    1.4450    4.1190 O   0  0  0  0  0  0  0  0  0  0  0  0
  -26.4380    1.3920    4.6340 C   0  0  0  0  0  0  0  0  0  0  0  0
  -27.2660    0.5230    3.7010 C   0  0  0  0  0  0  0  0  0  0  0  0
  -21.6060   -1.4390    4.2080 N   0  0  0  0  0  0  0  0  0  0  0  0
  -21.9770   -0.9880    5.5280 C   0  0  1  0  0  0  0  0  0  0  0  0
  -21.2320   -1.8070    6.5820 C   0  0  0  0  0  0  0  0  0  0  0  0
  -21.7240   -3.2490    6.6510 C   0  0  1  0  0  0  0  0  0  0  0  0
  -21.6680    0.4850    5.6120 C   0  0  0  0  0  0  0  0  0  0  0  0
  -21.0080   -4.0170    7.6740 C   0  0  0  0  0  0  0  0  0  0  0  0
  -19.7960   -4.0580    7.8660 O   0  0  0  0  0  0  0  0  0  0  0  0
  -21.9940   -4.8080    8.4230 N   0  0  0  0  0  0  0  0  0  0  0  0
  -23.2920   -4.5590    7.9250 C   0  0  0  0  0  0  0  0  0  0  0  0
  -23.1500   -3.2360    7.1500 C   0  0  0  0  0  0  0  0  0  0  0  0
  -22.5860    1.3250    4.6820 C   0  0  0  0  0  0  0  0  0  0  0  0
  -24.0990    1.3500    5.1430 C   0  0  0  0  0  0  0  0  0  0  0  0
  -24.4920    0.9420    6.2370 O   0  0  0  0  0  0  0  0  0  0  0  0
  -25.9956  -13.4959   -0.6167 H   0  0  0  0  0  0  0  0  0  0  0  0
  -24.7049  -12.6572    0.3091 H   0  0  0  0  0  0  0  0  0  0  0  0
  -24.3087  -13.4873   -1.2338 H   0  0  0  0  0  0  0  0  0  0  0  0
  -26.6121  -12.5221   -2.9870 H   0  0  0  0  0  0  0  0  0  0  0  0
  -24.8624  -12.4845   -3.3914 H   0  0  0  0  0  0  0  0  0  0  0  0
  -25.8345  -10.9760   -3.4681 H   0  0  0  0  0  0  0  0  0  0  0  0
  -27.3672  -11.4060   -0.7453 H   0  0  0  0  0  0  0  0  0  0  0  0
  -26.6419   -9.9173   -1.4413 H   0  0  0  0  0  0  0  0  0  0  0  0
  -26.1341  -10.4885    0.1843 H   0  0  0  0  0  0  0  0  0  0  0  0
  -21.9386   -9.7221   -1.7282 H   0  0  0  0  0  0  0  0  0  0  0  0
  -21.3920   -9.4612    1.0842 H   0  0  0  0  0  0  0  0  0  0  0  0
  -19.6185   -9.1305   -0.5011 H   0  0  0  0  0  0  0  0  0  0  0  0
  -19.9689   -7.5311    0.2377 H   0  0  0  0  0  0  0  0  0  0  0  0
  -21.0190   -8.5047   -2.2231 H   0  0  0  0  0  0  0  0  0  0  0  0
  -21.6809   -7.3411    2.3966 H   0  0  0  0  0  0  0  0  0  0  0  0
  -24.1786   -5.9855    1.4887 H   0  0  0  0  0  0  0  0  0  0  0  0
  -22.9729   -6.5585    4.2593 H   0  0  0  0  0  0  0  0  0  0  0  0
  -25.1273   -5.7073    5.2041 H   0  0  0  0  0  0  0  0  0  0  0  0
  -25.6657   -5.2590    3.5501 H   0  0  0  0  0  0  0  0  0  0  0  0
  -24.2455   -4.4407    4.2850 H   0  0  0  0  0  0  0  0  0  0  0  0
  -23.8668   -8.6115    3.1654 H   0  0  0  0  0  0  0  0  0  0  0  0
  -25.4621   -7.8061    2.9836 H   0  0  0  0  0  0  0  0  0  0  0  0
  -24.8100   -8.1478    4.6221 H   0  0  0  0  0  0  0  0  0  0  0  0
  -23.8140   -3.5992    1.1242 H   0  0  0  0  0  0  0  0  0  0  0  0
  -21.1730   -2.6221    1.8581 H   0  0  0  0  0  0  0  0  0  0  0  0
  -22.1267   -0.4135    1.1028 H   0  0  0  0  0  0  0  0  0  0  0  0
  -23.7116   -1.2225    0.8569 H   0  0  0  0  0  0  0  0  0  0  0  0
  -22.6059   -2.8300   -0.7523 H   0  0  0  0  0  0  0  0  0  0  0  0
  -22.3233   -1.1890   -2.6105 H   0  0  0  0  0  0  0  0  0  0  0  0
  -22.2299    0.1447   -1.4110 H   0  0  0  0  0  0  0  0  0  0  0  0
  -23.7484   -0.7982   -1.5892 H   0  0  0  0  0  0  0  0  0  0  0  0
  -20.3338   -2.7124    0.2015 H   0  0  0  0  0  0  0  0  0  0  0  0
  -20.1769   -1.0197   -0.3787 H   0  0  0  0  0  0  0  0  0  0  0  0
  -20.3297   -2.3638   -1.5606 H   0  0  0  0  0  0  0  0  0  0  0  0
  -26.8623    2.4061    4.6735 H   0  0  0  0  0  0  0  0  0  0  0  0
  -26.4344    0.9564    5.6441 H   0  0  0  0  0  0  0  0  0  0  0  0
  -28.2997    0.4670    4.0730 H   0  0  0  0  0  0  0  0  0  0  0  0
  -26.8349   -0.4883    3.6628 H   0  0  0  0  0  0  0  0  0  0  0  0
  -27.2627    0.9614    2.6922 H   0  0  0  0  0  0  0  0  0  0  0  0
  -20.6490   -1.4261    3.9181 H   0  0  0  0  0  0  0  0  0  0  0  0
  -23.0575   -1.1332    5.6742 H   0  0  0  0  0  0  0  0  0  0  0  0
  -21.3795   -1.3359    7.5650 H   0  0  0  0  0  0  0  0  0  0  0  0
  -20.1603   -1.8107    6.3342 H   0  0  0  0  0  0  0  0  0  0  0  0
  -21.6395   -3.7276    5.6642 H   0  0  0  0  0  0  0  0  0  0  0  0
  -20.6206    0.6458    5.3168 H   0  0  0  0  0  0  0  0  0  0  0  0
  -21.8120    0.8197    6.6499 H   0  0  0  0  0  0  0  0  0  0  0  0
  -21.7778   -5.4310    9.1748 H   0  0  0  0  0  0  0  0  0  0  0  0
  -24.0128   -4.4532    8.7492 H   0  0  0  0  0  0  0  0  0  0  0  0
  -23.6160   -5.3702    7.2564 H   0  0  0  0  0  0  0  0  0  0  0  0
  -23.8574   -3.1992    6.3084 H   0  0  0  0  0  0  0  0  0  0  0  0
  -23.3235   -2.3753    7.8127 H   0  0  0  0  0  0  0  0  0  0  0  0
  -22.5379    0.8995    3.6688 H   0  0  0  0  0  0  0  0  0  0  0  0
  -22.2106    2.3588    4.6638 H   0  0  0  0  0  0  0  0  0  0  0  0
  2  1  2  0  0  0  0
  2  3  1  0  0  0  0
  3  4  1  0  0  0  0
  4  5  1  0  0  0  0
  4  6  1  0  0  0  0
  4  7  1  0  0  0  0
  5 45  1  0  0  0  0
  5 46  1  0  0  0  0
  5 47  1  0  0  0  0
  6 48  1  0  0  0  0
  6 49  1  0  0  0  0
  6 50  1  0  0  0  0
  7 51  1  0  0  0  0
  7 52  1  0  0  0  0
  7 53  1  0  0  0  0
  8  2  1  0  0  0  0
  8 54  1  0  0  0  0
  9  8  1  0  0  0  0
  9 12  1  0  0  0  0
  9 55  1  1  0  0  0
 10  9  1  0  0  0  0
 10 11  2  0  0  0  0
 12 13  1  0  0  0  0
 12 56  1  0  0  0  0
 12 57  1  0  0  0  0
 13 58  1  0  0  0  0
 14 10  1  0  0  0  0
 14 59  1  0  0  0  0
 15 14  1  0  0  0  0
 15 18  1  0  0  0  0
 15 60  1  6  0  0  0
 16 15  1  0  0  0  0
 16 17  2  0  0  0  0
 18 19  1  0  0  0  0
 18 20  1  0  0  0  0
 18 61  1  0  0  0  0
 19 62  1  0  0  0  0
 19 63  1  0  0  0  0
 19 64  1  0  0  0  0
 20 65  1  0  0  0  0
 20 66  1  0  0  0  0
 20 67  1  0  0  0  0
 21 16  1  0  0  0  0
 21 68  1  0  0  0  0
 22 21  1  0  0  0  0
 22 25  1  0  0  0  0
 22 69  1  6  0  0  0
 23 22  1  0  0  0  0
 23 24  2  0  0  0  0
 25 26  1  0  0  0  0
 25 70  1  0  0  0  0
 25 71  1  0  0  0  0
 26 27  1  0  0  0  0
 26 28  1  0  0  0  0
 26 72  1  0  0  0  0
 27 73  1  0  0  0  0
 27 74  1  0  0  0  0
 27 75  1  0  0  0  0
 28 76  1  0  0  0  0
 28 77  1  0  0  0  0
 28 78  1  0  0  0  0
 29 30  1  0  0  0  0
 30 31  1  0  0  0  0
 30 79  1  0  0  0  0
 30 80  1  0  0  0  0
 31 81  1  0  0  0  0
 31 82  1  0  0  0  0
 31 83  1  0  0  0  0
 32 23  1  0  0  0  0
 32 84  1  0  0  0  0
 33 32  1  0  0  0  0
 33 34  1  0  0  0  0
 33 85  1  1  0  0  0
 34 35  1  0  0  0  0
 34 86  1  0  0  0  0
 34 87  1  0  0  0  0
 35 37  1  0  0  0  0
 35 41  1  0  0  0  0
 35 88  1  6  0  0  0
 36 33  1  0  0  0  0
 36 89  1  0  0  0  0
 36 90  1  0  0  0  0
 37 38  2  0  0  0  0
 37 39  1  0  0  0  0
 39 91  1  0  0  0  0
 40 39  1  0  0  0  0
 40 92  1  0  0  0  0
 40 93  1  0  0  0  0
 41 40  1  0  0  0  0
 41 94  1  0  0  0  0
 41 95  1  0  0  0  0
 42 36  1  0  0  0  0
 42 43  1  0  0  0  0
 42 96  1  0  0  0  0
 42 97  1  0  0  0  0
 43 29  1  0  0  0  0
 43 44  2  0  0  0  0
M  END
