4rt1_ligand
 OpenBabel08222323353D

 68 74  0  0  1  0  0  0  0  0999 V2000
   25.9110  -38.8180  147.3430 P   0  0  1  0  0  0  0  0  0  0  0  0
   26.9990  -37.8340  147.5120 O   0  0  0  0  0  1  0  0  0  0  0  0
   24.7890  -38.6190  148.3370 O   0  0  0  0  0  0  0  0  0  0  0  0
   25.3790  -38.7170  145.8520 O   0  0  0  0  0  0  0  0  0  0  0  0
   24.3150  -39.4530  145.3800 C   0  0  0  0  0  0  0  0  0  0  0  0
   24.1150  -39.3440  143.9380 C   0  0  1  0  0  0  0  0  0  0  0  0
   23.8580  -38.0110  143.5890 O   0  0  0  0  0  0  0  0  0  0  0  0
   25.3740  -39.6800  143.1660 C   0  0  1  0  0  0  0  0  0  0  0  0
   25.4480  -41.0940  142.9420 O   0  0  0  0  0  0  0  0  0  0  0  0
   25.2230  -38.9440  141.9800 C   0  0  1  0  0  0  0  0  0  0  0  0
   24.3590  -39.5500  140.9780 O   0  0  0  0  0  0  0  0  0  0  0  0
   24.6040  -37.6950  142.4260 C   0  0  2  0  0  0  0  0  0  0  0  0
   25.5610  -36.6720  142.8670 N   0  0  0  0  0  0  0  0  0  0  0  0
   25.7870  -36.2080  144.1220 C   0  0  0  0  0  0  0  0  0  0  0  0
   26.7510  -35.2710  144.0790 N   0  0  0  0  0  0  0  0  0  0  0  0
   27.1490  -35.1230  142.7790 C   0  0  0  0  0  0  0  0  0  0  0  0
   28.0910  -34.3310  142.0940 C   0  0  0  0  0  0  0  0  0  0  0  0
   28.8830  -33.4400  142.7100 O   0  0  0  0  0  0  0  0  0  0  0  0
   28.2020  -34.4490  140.7690 N   0  0  0  0  0  0  0  0  0  0  0  0
   27.4360  -35.3490  140.1190 C   0  0  0  0  0  0  0  0  0  0  0  0
   27.6120  -35.4570  138.7100 N   0  0  0  0  0  0  0  0  0  0  0  0
   26.5110  -36.1300  140.6980 N   0  0  0  0  0  0  0  0  0  0  0  0
   26.3710  -36.0080  142.0360 C   0  0  0  0  0  0  0  0  0  0  0  0
   26.9040  -41.7540  142.7630 P   0  0  2  0  0  0  0  0  0  0  0  0
   27.7520  -40.8860  141.9010 O   0  0  0  0  0  1  0  0  0  0  0  0
   26.6260  -43.1110  142.2610 O   0  0  0  0  0  0  0  0  0  0  0  0
   27.5260  -41.8070  144.1840 O   0  0  0  0  0  0  0  0  0  0  0  0
   26.9310  -42.4550  145.3170 C   0  0  0  0  0  0  0  0  0  0  0  0
   27.5110  -42.1620  146.5980 C   0  0  1  0  0  0  0  0  0  0  0  0
   28.9250  -42.6570  146.6260 O   0  0  0  0  0  0  0  0  0  0  0  0
   27.5980  -40.7070  146.9460 C   0  0  1  0  0  0  0  0  0  0  0  0
   26.4020  -40.2630  147.5550 O   0  0  0  0  0  0  0  0  0  0  0  0
   28.7530  -40.6890  147.8740 C   0  0  1  0  0  0  0  0  0  0  0  0
   28.3930  -41.0600  149.1730 O   0  0  0  0  0  0  0  0  0  0  0  0
   29.6720  -41.7430  147.3550 C   0  0  2  0  0  0  0  0  0  0  0  0
   30.7490  -41.2870  146.4080 N   0  0  0  0  0  0  0  0  0  0  0  0
   30.6250  -41.0740  145.0950 C   0  0  0  0  0  0  0  0  0  0  0  0
   31.8060  -40.6600  144.6110 N   0  0  0  0  0  0  0  0  0  0  0  0
   32.6900  -40.6720  145.6290 C   0  0  0  0  0  0  0  0  0  0  0  0
   34.0340  -40.3730  145.7910 C   0  0  0  0  0  0  0  0  0  0  0  0
   34.8120  -39.9690  144.6960 O   0  0  0  0  0  0  0  0  0  0  0  0
   34.6170  -40.4760  146.9900 N   0  0  0  0  0  0  0  0  0  0  0  0
   33.9140  -40.8400  148.0550 C   0  0  0  0  0  0  0  0  0  0  0  0
   34.5400  -40.9190  149.2750 N   0  0  0  0  0  0  0  0  0  0  0  0
   32.6180  -41.1250  147.9690 N   0  0  0  0  0  0  0  0  0  0  0  0
   32.0170  -41.0550  146.7670 C   0  0  0  0  0  0  0  0  0  0  0  0
   23.4016  -39.1041  145.8839 H   0  0  0  0  0  0  0  0  0  0  0  0
   24.4887  -40.5108  145.6267 H   0  0  0  0  0  0  0  0  0  0  0  0
   23.2860  -39.9995  143.6330 H   0  0  0  0  0  0  0  0  0  0  0  0
   26.2723  -39.3534  143.7104 H   0  0  0  0  0  0  0  0  0  0  0  0
   26.2100  -38.7589  141.5310 H   0  0  0  0  0  0  0  0  0  0  0  0
   23.4875  -39.6624  141.3391 H   0  0  0  0  0  0  0  0  0  0  0  0
   23.9625  -37.2929  141.6280 H   0  0  0  0  0  0  0  0  0  0  0  0
   25.2702  -36.5412  145.0208 H   0  0  0  0  0  0  0  0  0  0  0  0
   28.8467  -33.8758  140.2633 H   0  0  0  0  0  0  0  0  0  0  0  0
   27.0494  -36.1305  138.1708 H   0  0  0  0  0  0  0  0  0  0  0  0
   28.3019  -34.8616  138.2300 H   0  0  0  0  0  0  0  0  0  0  0  0
   27.0033  -43.5410  145.1575 H   0  0  0  0  0  0  0  0  0  0  0  0
   25.8721  -42.1594  145.3537 H   0  0  0  0  0  0  0  0  0  0  0  0
   26.9156  -42.6759  147.3670 H   0  0  0  0  0  0  0  0  0  0  0  0
   27.7993  -40.0935  146.0554 H   0  0  0  0  0  0  0  0  0  0  0  0
   29.2312  -39.6984  147.8803 H   0  0  0  0  0  0  0  0  0  0  0  0
   27.7387  -40.4559  149.5038 H   0  0  0  0  0  0  0  0  0  0  0  0
   30.1454  -42.2359  148.2169 H   0  0  0  0  0  0  0  0  0  0  0  0
   29.7151  -41.2134  144.5132 H   0  0  0  0  0  0  0  0  0  0  0  0
   35.5923  -40.2768  147.0850 H   0  0  0  0  0  0  0  0  0  0  0  0
   34.0068  -41.2002  150.1102 H   0  0  0  0  0  0  0  0  0  0  0  0
   35.5426  -40.6971  149.3547 H   0  0  0  0  0  0  0  0  0  0  0  0
  1  2  1  1  0  0  0
  1  3  2  0  0  0  0
  1  4  1  0  0  0  0
  1 32  1  0  0  0  0
  4  5  1  0  0  0  0
  5  6  1  0  0  0  0
  5 47  1  0  0  0  0
  5 48  1  0  0  0  0
  6  7  1  0  0  0  0
  6  8  1  0  0  0  0
  6 49  1  6  0  0  0
  7 12  1  0  0  0  0
  8  9  1  0  0  0  0
  8 10  1  0  0  0  0
  8 50  1  1  0  0  0
  9 24  1  0  0  0  0
 10 11  1  0  0  0  0
 10 12  1  0  0  0  0
 10 51  1  6  0  0  0
 11 52  1  0  0  0  0
 12 13  1  0  0  0  0
 12 53  1  6  0  0  0
 13 14  1  0  0  0  0
 13 23  1  0  0  0  0
 14 15  2  0  0  0  0
 14 54  1  0  0  0  0
 15 16  1  0  0  0  0
 16 17  1  0  0  0  0
 16 23  2  0  0  0  0
 17 18  2  0  0  0  0
 17 19  1  0  0  0  0
 19 20  1  0  0  0  0
 19 55  1  0  0  0  0
 20 21  1  0  0  0  0
 20 22  2  0  0  0  0
 21 56  1  0  0  0  0
 21 57  1  0  0  0  0
 22 23  1  0  0  0  0
 24 25  1  6  0  0  0
 24 26  2  0  0  0  0
 24 27  1  0  0  0  0
 27 28  1  0  0  0  0
 28 29  1  0  0  0  0
 28 58  1  0  0  0  0
 28 59  1  0  0  0  0
 29 30  1  0  0  0  0
 29 31  1  0  0  0  0
 29 60  1  1  0  0  0
 30 35  1  0  0  0  0
 31 32  1  0  0  0  0
 31 33  1  0  0  0  0
 31 61  1  6  0  0  0
 33 34  1  0  0  0  0
 33 35  1  0  0  0  0
 33 62  1  6  0  0  0
 34 63  1  0  0  0  0
 35 36  1  0  0  0  0
 35 64  1  1  0  0  0
 36 37  1  0  0  0  0
 36 46  1  0  0  0  0
 37 38  2  0  0  0  0
 37 65  1  0  0  0  0
 38 39  1  0  0  0  0
 39 40  1  0  0  0  0
 39 46  2  0  0  0  0
 40 41  2  0  0  0  0
 40 42  1  0  0  0  0
 42 43  1  0  0  0  0
 42 66  1  0  0  0  0
 43 44  1  0  0  0  0
 43 45  2  0  0  0  0
 44 67  1  0  0  0  0
 44 68  1  0  0  0  0
 45 46  1  0  0  0  0
M  END
