4rx8_ligand
 OpenBabel08222323353D

 50 53  0  0  1  0  0  0  0  0999 V2000
    0.4040    4.5760   10.2660 C   0  0  0  0  0  0  0  0  0  0  0  0
   -0.6060    5.1660   11.2460 C   0  0  0  0  0  0  0  0  0  0  0  0
   -0.5780    4.4630   12.5860 C   0  0  0  0  0  0  0  0  0  0  0  0
   -1.0940    0.0410   12.8480 C   0  0  0  0  0  0  0  0  0  0  0  0
   -1.8660   -0.9650   13.4600 C   0  0  0  0  0  0  0  0  0  0  0  0
    4.2700    0.5710   14.9430 C   0  0  0  0  0  0  0  0  0  0  0  0
    3.4900    2.6720   13.4590 C   0  0  0  0  0  0  0  0  0  0  0  0
    3.0610    0.5460   14.2940 C   0  0  0  0  0  0  0  0  0  0  0  0
    4.7630   -0.5620   15.7870 C   0  0  0  0  0  0  0  0  0  0  0  0
    0.1180   -1.5670   14.6710 C   0  0  0  0  0  0  0  0  0  0  0  0
   -1.2090   -1.7650   14.3790 C   0  0  0  0  0  0  0  0  0  0  0  0
   -1.5730   -2.9370   15.2710 C   0  0  0  0  0  0  0  0  0  0  0  0
   -0.4730   -3.2200   15.9460 C   0  0  0  0  0  0  0  0  0  0  0  0
    0.8060    4.4470   13.2100 C   0  0  1  0  0  0  0  0  0  0  0  0
    1.7670    3.7770   12.2000 C   0  0  1  0  0  0  0  0  0  0  0  0
    1.7780    4.5750   10.8960 C   0  0  0  0  0  0  0  0  0  0  0  0
    3.0750    3.6960   12.7390 N   0  0  0  0  0  0  0  0  0  0  0  0
    1.2050    5.8290   13.5360 N   0  3  0  0  0  0  0  0  0  0  0  0
    0.9170   -0.5560   14.0720 C   0  0  0  0  0  0  0  0  0  0  0  0
    0.2710    0.2170   13.1250 C   0  0  0  0  0  0  0  0  0  0  0  0
    2.2170   -0.4930   14.4300 N   0  0  0  0  0  0  0  0  0  0  0  0
    5.0550    1.6610   14.8300 N   0  0  0  0  0  0  0  0  0  0  0  0
    4.6510    2.6780   14.0910 N   0  0  0  0  0  0  0  0  0  0  0  0
    2.7020    1.6040   13.5830 N   0  0  0  0  0  0  0  0  0  0  0  0
    4.0550   -1.4470   16.0680 O   0  0  0  0  0  0  0  0  0  0  0  0
    0.4960   -2.4300   15.5860 N   0  0  0  0  0  0  0  0  0  0  0  0
    6.0020   -0.4850   16.1740 N   0  0  0  0  0  0  0  0  0  0  0  0
    0.4220    5.1828    9.3487 H   0  0  0  0  0  0  0  0  0  0  0  0
    0.1141    3.5444   10.0177 H   0  0  0  0  0  0  0  0  0  0  0  0
   -1.6142    5.0704   10.8166 H   0  0  0  0  0  0  0  0  0  0  0  0
   -0.3719    6.2299   11.3989 H   0  0  0  0  0  0  0  0  0  0  0  0
   -0.9129    3.4246   12.4458 H   0  0  0  0  0  0  0  0  0  0  0  0
   -1.2664    4.9812   13.2698 H   0  0  0  0  0  0  0  0  0  0  0  0
   -1.5716    0.7045   12.1362 H   0  0  0  0  0  0  0  0  0  0  0  0
   -2.9149   -1.1050   13.2249 H   0  0  0  0  0  0  0  0  0  0  0  0
   -2.5370   -3.4388   15.3403 H   0  0  0  0  0  0  0  0  0  0  0  0
   -0.3893   -4.0037   16.6975 H   0  0  0  0  0  0  0  0  0  0  0  0
    0.7891    3.8553   14.1371 H   0  0  0  0  0  0  0  0  0  0  0  0
    1.4084    2.7584   11.9906 H   0  0  0  0  0  0  0  0  0  0  0  0
    2.0801    5.6112   11.1080 H   0  0  0  0  0  0  0  0  0  0  0  0
    2.4960    4.1191   10.1984 H   0  0  0  0  0  0  0  0  0  0  0  0
    3.7301    4.4706   12.5607 H   0  0  0  0  0  0  0  0  0  0  0  0
    0.5506    6.2210   14.1949 H   0  0  0  0  0  0  0  0  0  0  0  0
    1.2088    6.3849   12.6951 H   0  0  0  0  0  0  0  0  0  0  0  0
    2.1281    5.8256   13.9408 H   0  0  0  0  0  0  0  0  0  0  0  0
    0.8294    0.9737   12.5859 H   0  0  0  0  0  0  0  0  0  0  0  0
    2.6103   -1.3428   14.8590 H   0  0  0  0  0  0  0  0  0  0  0  0
    1.4492   -2.4760   15.9737 H   0  0  0  0  0  0  0  0  0  0  0  0
    6.3948   -1.2093   16.7407 H   0  0  0  0  0  0  0  0  0  0  0  0
    6.5621    0.2985   15.9050 H   0  0  0  0  0  0  0  0  0  0  0  0
  1  2  1  0  0  0  0
  1 28  1  0  0  0  0
  1 29  1  0  0  0  0
  2 30  1  0  0  0  0
  2 31  1  0  0  0  0
  3  2  1  0  0  0  0
  3 32  1  0  0  0  0
  3 33  1  0  0  0  0
  4  5  2  0  0  0  0
  4 34  1  0  0  0  0
  5 35  1  0  0  0  0
  6  9  1  0  0  0  0
  6 22  1  0  0  0  0
  7 17  1  0  0  0  0
  7 23  1  0  0  0  0
  8  6  2  0  0  0  0
  8 24  1  0  0  0  0
  9 25  2  0  0  0  0
  9 27  1  0  0  0  0
 10 11  2  0  0  0  0
 10 26  1  0  0  0  0
 11  5  1  0  0  0  0
 11 12  1  0  0  0  0
 12 36  1  0  0  0  0
 13 12  2  0  0  0  0
 13 37  1  0  0  0  0
 14  3  1  0  0  0  0
 14 18  1  0  0  0  0
 14 38  1  1  0  0  0
 15 14  1  0  0  0  0
 15 16  1  0  0  0  0
 15 39  1  6  0  0  0
 16  1  1  0  0  0  0
 16 40  1  0  0  0  0
 16 41  1  0  0  0  0
 17 15  1  0  0  0  0
 17 42  1  0  0  0  0
 18 43  1  0  0  0  0
 18 44  1  0  0  0  0
 18 45  1  0  0  0  0
 19 10  1  0  0  0  0
 19 20  2  0  0  0  0
 19 21  1  0  0  0  0
 20  4  1  0  0  0  0
 20 46  1  0  0  0  0
 21  8  1  0  0  0  0
 21 47  1  0  0  0  0
 22 23  2  0  0  0  0
 24  7  2  0  0  0  0
 26 13  1  0  0  0  0
 26 48  1  0  0  0  0
 27 49  1  0  0  0  0
 27 50  1  0  0  0  0
M  CHG  1  18   1
M  END
