4rx9_ligand
 OpenBabel08222323353D

 53 56  0  0  1  0  0  0  0  0999 V2000
    0.7180    4.4890   13.2900 C   0  0  2  0  0  0  0  0  0  0  0  0
   -0.7130    4.6440   12.7470 C   0  0  0  0  0  0  0  0  0  0  0  0
    5.2170    1.8220   14.5260 C   0  0  0  0  0  0  0  0  0  0  0  0
    4.4300    0.6850   14.7330 C   0  0  0  0  0  0  0  0  0  0  0  0
    4.9710   -0.4290   15.5510 C   0  0  0  0  0  0  0  0  0  0  0  0
    3.1500    0.6100   14.2180 C   0  0  0  0  0  0  0  0  0  0  0  0
    1.1240   -0.6660   14.3210 C   0  0  0  0  0  0  0  0  0  0  0  0
    0.5630   -1.7050   15.0130 C   0  0  0  0  0  0  0  0  0  0  0  0
   -0.7590   -2.0190   14.8630 C   0  0  0  0  0  0  0  0  0  0  0  0
   -1.5550   -1.2470   14.0420 C   0  0  0  0  0  0  0  0  0  0  0  0
   -1.0320   -0.1890   13.3200 C   0  0  0  0  0  0  0  0  0  0  0  0
    0.3360    0.0910   13.4620 C   0  0  0  0  0  0  0  0  0  0  0  0
   -3.8080    1.2280   11.9570 C   0  0  0  0  0  0  0  0  0  0  0  0
   -2.7330    1.9180   11.2450 C   0  0  0  0  0  0  0  0  0  0  0  0
    1.2070    5.8250   13.6600 N   0  3  0  0  0  0  0  0  0  0  0  0
   -0.7520    5.3880   11.3930 C   0  0  0  0  0  0  0  0  0  0  0  0
    0.1280    4.6870   10.3370 C   0  0  0  0  0  0  0  0  0  0  0  0
    1.5640    4.7040   10.8860 C   0  0  0  0  0  0  0  0  0  0  0  0
    1.6340    3.8850   12.1900 C   0  0  1  0  0  0  0  0  0  0  0  0
    3.0030    3.7850   12.6300 N   0  0  0  0  0  0  0  0  0  0  0  0
    3.4680    2.7320   13.3130 C   0  0  0  0  0  0  0  0  0  0  0  0
    4.6980    2.8070   13.8170 N   0  0  0  0  0  0  0  0  0  0  0  0
    6.2030   -0.3310   15.8860 N   0  0  0  0  0  0  0  0  0  0  0  0
    4.2250   -1.2820   15.9020 O   0  0  0  0  0  0  0  0  0  0  0  0
    2.4190   -0.4840   14.4890 N   0  0  0  0  0  0  0  0  0  0  0  0
   -1.9070    0.5170   12.5830 N   0  0  0  0  0  0  0  0  0  0  0  0
   -3.2430    0.4460   12.7360 N   0  0  0  0  0  0  0  0  0  0  0  0
   -1.6570    1.4470   11.6780 N   0  0  0  0  0  0  0  0  0  0  0  0
    2.6950    1.6520   13.5010 N   0  0  0  0  0  0  0  0  0  0  0  0
    0.7163    3.8313   14.1717 H   0  0  0  0  0  0  0  0  0  0  0  0
   -1.3090    5.2098   13.4782 H   0  0  0  0  0  0  0  0  0  0  0  0
   -1.1503    3.6436   12.6130 H   0  0  0  0  0  0  0  0  0  0  0  0
    6.2189    1.8922   14.9338 H   0  0  0  0  0  0  0  0  0  0  0  0
    1.1764   -2.2879   15.6905 H   0  0  0  0  0  0  0  0  0  0  0  0
   -1.1797   -2.8700   15.3863 H   0  0  0  0  0  0  0  0  0  0  0  0
   -2.6119   -1.4741   13.9610 H   0  0  0  0  0  0  0  0  0  0  0  0
    0.7809    0.9029   12.8981 H   0  0  0  0  0  0  0  0  0  0  0  0
   -4.8800    1.3710   11.8297 H   0  0  0  0  0  0  0  0  0  0  0  0
   -2.8464    2.6908   10.4862 H   0  0  0  0  0  0  0  0  0  0  0  0
    2.1457    5.7514   14.0199 H   0  0  0  0  0  0  0  0  0  0  0  0
    0.6061    6.2189   14.3669 H   0  0  0  0  0  0  0  0  0  0  0  0
    1.2047    6.4208   12.8469 H   0  0  0  0  0  0  0  0  0  0  0  0
   -0.3857    6.4149   11.5387 H   0  0  0  0  0  0  0  0  0  0  0  0
   -1.7902    5.4169   11.0308 H   0  0  0  0  0  0  0  0  0  0  0  0
    0.0800    5.2295    9.3813 H   0  0  0  0  0  0  0  0  0  0  0  0
   -0.2097    3.6508   10.1879 H   0  0  0  0  0  0  0  0  0  0  0  0
    1.8647    5.7422   11.0903 H   0  0  0  0  0  0  0  0  0  0  0  0
    2.2447    4.2647   10.1419 H   0  0  0  0  0  0  0  0  0  0  0  0
    1.2714    2.8691   11.9744 H   0  0  0  0  0  0  0  0  0  0  0  0
    3.6500    4.5556   12.4098 H   0  0  0  0  0  0  0  0  0  0  0  0
    6.6298   -1.0478   16.4374 H   0  0  0  0  0  0  0  0  0  0  0  0
    6.7384    0.4624   15.5962 H   0  0  0  0  0  0  0  0  0  0  0  0
    2.9373   -1.2843   14.8785 H   0  0  0  0  0  0  0  0  0  0  0  0
  1  2  1  0  0  0  0
  1 15  1  0  0  0  0
  1 30  1  1  0  0  0
  2 16  1  0  0  0  0
  2 31  1  0  0  0  0
  2 32  1  0  0  0  0
  3 22  1  0  0  0  0
  3 33  1  0  0  0  0
  4  3  2  0  0  0  0
  4  5  1  0  0  0  0
  5 23  1  0  0  0  0
  5 24  2  0  0  0  0
  6  4  1  0  0  0  0
  6 29  2  0  0  0  0
  7  8  2  0  0  0  0
  7 25  1  0  0  0  0
  8 34  1  0  0  0  0
  9  8  1  0  0  0  0
  9 35  1  0  0  0  0
 10  9  2  0  0  0  0
 10 36  1  0  0  0  0
 11 10  1  0  0  0  0
 11 12  2  0  0  0  0
 12  7  1  0  0  0  0
 12 37  1  0  0  0  0
 13 14  1  0  0  0  0
 13 38  1  0  0  0  0
 14 28  2  0  0  0  0
 14 39  1  0  0  0  0
 15 40  1  0  0  0  0
 15 41  1  0  0  0  0
 15 42  1  0  0  0  0
 16 43  1  0  0  0  0
 16 44  1  0  0  0  0
 17 16  1  0  0  0  0
 17 45  1  0  0  0  0
 17 46  1  0  0  0  0
 18 17  1  0  0  0  0
 18 47  1  0  0  0  0
 18 48  1  0  0  0  0
 19  1  1  0  0  0  0
 19 18  1  0  0  0  0
 19 49  1  6  0  0  0
 20 19  1  0  0  0  0
 20 50  1  0  0  0  0
 21 20  1  0  0  0  0
 21 22  2  0  0  0  0
 23 51  1  0  0  0  0
 23 52  1  0  0  0  0
 25  6  1  0  0  0  0
 25 53  1  0  0  0  0
 26 11  1  0  0  0  0
 26 27  1  0  0  0  0
 26 28  1  0  0  0  0
 27 13  2  0  0  0  0
 29 21  1  0  0  0  0
M  CHG  1  15   1
M  END
