4rxc_ligand
 OpenBabel08222323353D

 27 27  0  0  0  0  0  0  0  0999 V2000
   32.3860   -1.0570   13.9020 O   0  0  0  0  0  1  0  0  0  0  0  0
   33.6360   -0.3830   13.5180 P   0  0  0  0  0  0  0  0  0  0  0  0
   34.8410   -1.1970   13.3260 O   0  0  0  0  0  1  0  0  0  0  0  0
   33.8130    1.0350   13.8730 O   0  0  0  0  0  0  0  0  0  0  0  0
   33.2090   -0.1330   11.6930 C   0  0  0  0  0  0  0  0  0  0  0  0
   34.7510    0.1770   10.7560 P   0  0  0  0  0  0  0  0  0  0  0  0
   35.4160    1.1350   11.6680 O   0  0  0  0  0  1  0  0  0  0  0  0
   34.2820    0.7680    9.4960 O   0  0  0  0  0  1  0  0  0  0  0  0
   35.4030   -1.1410   10.6630 O   0  0  0  0  0  0  0  0  0  0  0  0
   32.5710   -1.3080   11.1880 O   0  0  0  0  0  0  0  0  0  0  0  0
   32.3130    1.0670   11.4680 C   0  0  0  0  0  0  0  0  0  0  0  0
   31.1710    0.9680   12.4560 C   0  0  0  0  0  0  0  0  0  0  0  0
   30.0680    1.4150   11.7210 C   0  0  0  0  0  0  0  0  0  0  0  0
   29.2310    2.3820   12.2740 C   0  0  0  0  0  0  0  0  0  0  0  0
   28.1270    2.8500   11.5700 C   0  0  0  0  0  0  0  0  0  0  0  0
   27.8530    2.3570   10.3000 C   0  0  0  0  0  0  0  0  0  0  0  0
   28.6900    1.3880    9.7340 N   0  0  0  0  0  0  0  0  0  0  0  0
   29.8000    0.9180   10.4490 C   0  0  0  0  0  0  0  0  0  0  0  0
   31.7753   -1.4715   11.6806 H   0  0  0  0  0  0  0  0  0  0  0  0
   31.9227    1.0578   10.4396 H   0  0  0  0  0  0  0  0  0  0  0  0
   32.8778    1.9955   11.6376 H   0  0  0  0  0  0  0  0  0  0  0  0
   31.3492    1.6121   13.3297 H   0  0  0  0  0  0  0  0  0  0  0  0
   31.0275   -0.0704   12.7892 H   0  0  0  0  0  0  0  0  0  0  0  0
   29.4425    2.7732   13.2626 H   0  0  0  0  0  0  0  0  0  0  0  0
   27.4802    3.5993   12.0118 H   0  0  0  0  0  0  0  0  0  0  0  0
   26.9936    2.7217    9.7491 H   0  0  0  0  0  0  0  0  0  0  0  0
   30.4492    0.1681   10.0117 H   0  0  0  0  0  0  0  0  0  0  0  0
  1  2  1  0  0  0  0
  2  3  1  0  0  0  0
  2  4  2  0  0  0  0
  2  5  1  0  0  0  0
  5  6  1  0  0  0  0
  5 10  1  0  0  0  0
  5 11  1  0  0  0  0
  6  7  1  0  0  0  0
  6  8  1  0  0  0  0
  6  9  2  0  0  0  0
 10 19  1  0  0  0  0
 11 12  1  0  0  0  0
 11 20  1  0  0  0  0
 11 21  1  0  0  0  0
 12 13  1  0  0  0  0
 12 22  1  0  0  0  0
 12 23  1  0  0  0  0
 13 14  2  0  0  0  0
 13 18  1  0  0  0  0
 14 15  1  0  0  0  0
 14 24  1  0  0  0  0
 15 16  2  0  0  0  0
 15 25  1  0  0  0  0
 16 17  1  0  0  0  0
 16 26  1  0  0  0  0
 17 18  2  0  0  0  0
 18 27  1  0  0  0  0
M  END
