4rxh_ligand
 OpenBabel08222323353D

109108  0  0  1  0  0  0  0  0999 V2000
  -32.1000   93.5230  200.0380 N   0  3  0  0  0  0  0  0  0  0  0  0
  -30.9010   92.8930  199.5040 C   0  0  2  0  0  0  0  0  0  0  0  0
  -30.6490   91.5440  200.1790 C   0  0  0  0  0  0  0  0  0  0  0  0
  -29.6830   90.8550  199.8580 O   0  0  0  0  0  0  0  0  0  0  0  0
  -29.6860   93.8120  199.6840 C   0  0  0  0  0  0  0  0  0  0  0  0
  -28.5280   93.5130  198.7420 C   0  0  0  0  0  0  0  0  0  0  0  0
  -27.2860   94.2970  199.1280 C   0  0  0  0  0  0  0  0  0  0  0  0
  -26.1050   93.8950  198.2590 C   0  0  0  0  0  0  0  0  0  0  0  0
  -24.7830   94.2500  198.8600 N   0  3  0  0  0  0  0  0  0  0  0  0
  -31.5330   91.1700  201.1040 N   0  0  0  0  0  0  0  0  0  0  0  0
  -31.3750   89.9310  201.8660 C   0  0  2  0  0  0  0  0  0  0  0  0
  -32.0420   88.7410  201.1810 C   0  0  0  0  0  0  0  0  0  0  0  0
  -33.1090   88.8790  200.5920 O   0  0  0  0  0  0  0  0  0  0  0  0
  -31.9470   90.0950  203.2720 C   0  0  0  0  0  0  0  0  0  0  0  0
  -31.4160   91.2960  204.0400 C   0  0  0  0  0  0  0  0  0  0  0  0
  -29.8970   91.2540  204.1940 C   0  0  0  0  0  0  0  0  0  0  0  0
  -29.4410   92.3350  205.1660 C   0  0  0  0  0  0  0  0  0  0  0  0
  -29.3780   91.8640  206.5860 N   0  3  0  0  0  0  0  0  0  0  0  0
  -31.4140   87.5710  201.2710 N   0  0  0  0  0  0  0  0  0  0  0  0
  -31.9740   86.3430  200.7040 C   0  0  2  0  0  0  0  0  0  0  0  0
  -32.5640   85.4640  201.7910 C   0  0  0  0  0  0  0  0  0  0  0  0
  -31.8310   84.8360  202.5500 O   0  0  0  0  0  0  0  0  0  0  0  0
  -30.9160   85.5450  199.9400 C   0  0  0  0  0  0  0  0  0  0  0  0
  -30.5180   86.1110  198.5920 C   0  0  0  0  0  0  0  0  0  0  0  0
  -29.4480   85.2330  197.9460 C   0  0  0  0  0  0  0  0  0  0  0  0
  -28.3030   85.0270  198.8340 N   0  0  0  0  0  0  0  0  0  0  0  0
  -27.7190   83.8520  199.0490 C   0  0  0  0  0  3  0  0  0  0  0  0
  -28.1560   82.7620  198.4310 N   0  0  0  0  0  0  0  0  0  0  0  0
  -26.6880   83.7660  199.8770 N   0  0  0  0  0  0  0  0  0  0  0  0
  -33.8900   85.3980  201.8580 N   0  0  0  0  0  0  0  0  0  0  0  0
  -34.5390   84.5440  202.8410 C   0  0  2  0  0  0  0  0  0  0  0  0
  -34.5560   83.1000  202.3500 C   0  0  0  0  0  0  0  0  0  0  0  0
  -34.2850   82.8340  201.1780 O   0  0  0  0  0  0  0  0  0  0  0  0
  -35.9580   85.0570  203.1370 C   0  0  0  0  0  0  0  0  0  0  0  0
  -35.9290   86.3200  203.9870 C   0  0  0  0  0  0  0  0  0  0  0  0
  -37.2790   86.9090  204.2500 C   0  0  0  0  0  0  0  0  0  0  0  0
  -37.1470   88.2130  205.0260 C   0  0  0  0  0  0  0  0  0  0  0  0
  -36.8460   87.9610  206.4640 N   0  3  0  0  0  0  0  0  0  0  0  0
  -34.8360   82.1660  203.2540 N   0  0  0  0  0  0  0  0  0  0  0  0
  -34.9170   80.7540  202.8890 C   0  0  2  0  0  0  0  0  0  0  0  0
  -35.8900   80.5200  201.7310 C   0  0  0  0  0  0  0  0  0  0  0  0
  -35.5120   79.9330  200.7110 O   0  5  0  0  0  0  0  0  0  0  0  0
  -35.3510   79.8820  204.0900 C   0  0  0  0  0  0  0  0  0  0  0  0
  -35.6180   78.4500  203.6380 C   0  0  0  0  0  0  0  0  0  0  0  0
  -34.2950   79.9020  205.1680 C   0  0  0  0  0  0  0  0  0  0  0  0
  -37.0580   80.9170  201.8110 O   0  0  0  0  0  0  0  0  0  0  0  0
  -32.2465   94.4088  199.5799 H   0  0  0  0  0  0  0  0  0  0  0  0
  -31.9887   93.6715  201.0288 H   0  0  0  0  0  0  0  0  0  0  0  0
  -32.8949   92.9249  199.8750 H   0  0  0  0  0  0  0  0  0  0  0  0
  -31.0506   92.7202  198.4280 H   0  0  0  0  0  0  0  0  0  0  0  0
  -29.3249   93.7068  200.7177 H   0  0  0  0  0  0  0  0  0  0  0  0
  -30.0103   94.8490  199.5126 H   0  0  0  0  0  0  0  0  0  0  0  0
  -28.8200   93.7862  197.7173 H   0  0  0  0  0  0  0  0  0  0  0  0
  -28.3003   92.4377  198.7841 H   0  0  0  0  0  0  0  0  0  0  0  0
  -27.0442   94.0946  200.1818 H   0  0  0  0  0  0  0  0  0  0  0  0
  -27.4818   95.3714  198.9965 H   0  0  0  0  0  0  0  0  0  0  0  0
  -26.1958   94.4046  197.2884 H   0  0  0  0  0  0  0  0  0  0  0  0
  -26.1382   92.8062  198.1060 H   0  0  0  0  0  0  0  0  0  0  0  0
  -24.0432   93.9595  198.2400 H   0  0  0  0  0  0  0  0  0  0  0  0
  -24.6808   93.7826  199.7472 H   0  0  0  0  0  0  0  0  0  0  0  0
  -24.7335   95.2473  198.9980 H   0  0  0  0  0  0  0  0  0  0  0  0
  -32.3262   91.7524  201.2820 H   0  0  0  0  0  0  0  0  0  0  0  0
  -30.2989   89.7190  201.9493 H   0  0  0  0  0  0  0  0  0  0  0  0
  -31.7078   89.1882  203.8468 H   0  0  0  0  0  0  0  0  0  0  0  0
  -33.0389   90.1983  203.1875 H   0  0  0  0  0  0  0  0  0  0  0  0
  -31.8736   91.3080  205.0402 H   0  0  0  0  0  0  0  0  0  0  0  0
  -31.6924   92.2132  203.4993 H   0  0  0  0  0  0  0  0  0  0  0  0
  -29.4268   91.4236  203.2141 H   0  0  0  0  0  0  0  0  0  0  0  0
  -29.5971   90.2682  204.5790 H   0  0  0  0  0  0  0  0  0  0  0  0
  -30.1463   93.1771  205.1082 H   0  0  0  0  0  0  0  0  0  0  0  0
  -28.4388   92.6748  204.8658 H   0  0  0  0  0  0  0  0  0  0  0  0
  -29.0715   92.6204  207.1776 H   0  0  0  0  0  0  0  0  0  0  0  0
  -28.7277   91.0971  206.6571 H   0  0  0  0  0  0  0  0  0  0  0  0
  -30.2924   91.5575  206.8792 H   0  0  0  0  0  0  0  0  0  0  0  0
  -30.5321   87.5295  201.7406 H   0  0  0  0  0  0  0  0  0  0  0  0
  -32.7749   86.6226  200.0037 H   0  0  0  0  0  0  0  0  0  0  0  0
  -31.3083   84.5301  199.7787 H   0  0  0  0  0  0  0  0  0  0  0  0
  -30.0129   85.4939  200.5659 H   0  0  0  0  0  0  0  0  0  0  0  0
  -30.1204   87.1276  198.7279 H   0  0  0  0  0  0  0  0  0  0  0  0
  -31.4017   86.1473  197.9379 H   0  0  0  0  0  0  0  0  0  0  0  0
  -29.0992   85.7185  197.0226 H   0  0  0  0  0  0  0  0  0  0  0  0
  -29.8895   84.2554  197.7022 H   0  0  0  0  0  0  0  0  0  0  0  0
  -27.9236   85.8485  199.3261 H   0  0  0  0  0  0  0  0  0  0  0  0
  -27.6991   81.8549  198.6020 H   0  0  0  0  0  0  0  0  0  0  0  0
  -28.9521   82.8231  197.7803 H   0  0  0  0  0  0  0  0  0  0  0  0
  -26.3437   84.6081  200.3599 H   0  0  0  0  0  0  0  0  0  0  0  0
  -26.2309   82.8571  200.0376 H   0  0  0  0  0  0  0  0  0  0  0  0
  -34.4460   85.9398  201.2276 H   0  0  0  0  0  0  0  0  0  0  0  0
  -33.9583   84.5830  203.7744 H   0  0  0  0  0  0  0  0  0  0  0  0
  -36.5151   84.2764  203.6757 H   0  0  0  0  0  0  0  0  0  0  0  0
  -36.4638   85.2781  202.1856 H   0  0  0  0  0  0  0  0  0  0  0  0
  -35.3188   87.0729  203.4667 H   0  0  0  0  0  0  0  0  0  0  0  0
  -35.4643   86.0756  204.9536 H   0  0  0  0  0  0  0  0  0  0  0  0
  -37.8771   86.1967  204.8372 H   0  0  0  0  0  0  0  0  0  0  0  0
  -37.7812   87.1068  203.2915 H   0  0  0  0  0  0  0  0  0  0  0  0
  -38.0915   88.7718  204.9505 H   0  0  0  0  0  0  0  0  0  0  0  0
  -36.3324   88.8090  204.5888 H   0  0  0  0  0  0  0  0  0  0  0  0
  -36.7648   88.8407  206.9494 H   0  0  0  0  0  0  0  0  0  0  0  0
  -35.9788   87.4530  206.5418 H   0  0  0  0  0  0  0  0  0  0  0  0
  -37.5908   87.4190  206.8732 H   0  0  0  0  0  0  0  0  0  0  0  0
  -34.9945   82.4359  204.2038 H   0  0  0  0  0  0  0  0  0  0  0  0
  -33.9151   80.4311  202.5697 H   0  0  0  0  0  0  0  0  0  0  0  0
  -36.2814   80.2973  204.5047 H   0  0  0  0  0  0  0  0  0  0  0  0
  -35.9252   77.8438  204.5029 H   0  0  0  0  0  0  0  0  0  0  0  0
  -34.7018   78.0267  203.2005 H   0  0  0  0  0  0  0  0  0  0  0  0
  -36.4195   78.4467  202.8847 H   0  0  0  0  0  0  0  0  0  0  0  0
  -34.1131   80.9399  205.4838 H   0  0  0  0  0  0  0  0  0  0  0  0
  -33.3627   79.4692  204.7761 H   0  0  0  0  0  0  0  0  0  0  0  0
  -34.6395   79.3116  206.0298 H   0  0  0  0  0  0  0  0  0  0  0  0
  1  2  1  0  0  0  0
  1 47  1  0  0  0  0
  1 48  1  0  0  0  0
  1 49  1  0  0  0  0
  2  3  1  0  0  0  0
  2  5  1  0  0  0  0
  2 50  1  6  0  0  0
  3  4  2  0  0  0  0
  3 10  1  0  0  0  0
  5  6  1  0  0  0  0
  5 51  1  0  0  0  0
  5 52  1  0  0  0  0
  6  7  1  0  0  0  0
  6 53  1  0  0  0  0
  6 54  1  0  0  0  0
  7  8  1  0  0  0  0
  7 55  1  0  0  0  0
  7 56  1  0  0  0  0
  8  9  1  0  0  0  0
  8 57  1  0  0  0  0
  8 58  1  0  0  0  0
  9 59  1  0  0  0  0
  9 60  1  0  0  0  0
  9 61  1  0  0  0  0
 10 11  1  0  0  0  0
 10 62  1  0  0  0  0
 11 12  1  0  0  0  0
 11 14  1  0  0  0  0
 11 63  1  1  0  0  0
 12 13  2  0  0  0  0
 12 19  1  0  0  0  0
 14 15  1  0  0  0  0
 14 64  1  0  0  0  0
 14 65  1  0  0  0  0
 15 16  1  0  0  0  0
 15 66  1  0  0  0  0
 15 67  1  0  0  0  0
 16 17  1  0  0  0  0
 16 68  1  0  0  0  0
 16 69  1  0  0  0  0
 17 18  1  0  0  0  0
 17 70  1  0  0  0  0
 17 71  1  0  0  0  0
 18 72  1  0  0  0  0
 18 73  1  0  0  0  0
 18 74  1  0  0  0  0
 19 20  1  0  0  0  0
 19 75  1  0  0  0  0
 20 21  1  0  0  0  0
 20 23  1  0  0  0  0
 20 76  1  6  0  0  0
 21 22  2  0  0  0  0
 21 30  1  0  0  0  0
 23 24  1  0  0  0  0
 23 77  1  0  0  0  0
 23 78  1  0  0  0  0
 24 25  1  0  0  0  0
 24 79  1  0  0  0  0
 24 80  1  0  0  0  0
 25 26  1  0  0  0  0
 25 81  1  0  0  0  0
 25 82  1  0  0  0  0
 26 27  1  0  0  0  0
 26 83  1  0  0  0  0
 27 28  1  0  0  0  0
 27 29  1  0  0  0  0
 28 84  1  0  0  0  0
 28 85  1  0  0  0  0
 29 86  1  0  0  0  0
 29 87  1  0  0  0  0
 30 31  1  0  0  0  0
 30 88  1  0  0  0  0
 31 32  1  0  0  0  0
 31 34  1  0  0  0  0
 31 89  1  1  0  0  0
 32 33  2  0  0  0  0
 32 39  1  0  0  0  0
 34 35  1  0  0  0  0
 34 90  1  0  0  0  0
 34 91  1  0  0  0  0
 35 36  1  0  0  0  0
 35 92  1  0  0  0  0
 35 93  1  0  0  0  0
 36 37  1  0  0  0  0
 36 94  1  0  0  0  0
 36 95  1  0  0  0  0
 37 38  1  0  0  0  0
 37 96  1  0  0  0  0
 37 97  1  0  0  0  0
 38 98  1  0  0  0  0
 38 99  1  0  0  0  0
 38100  1  0  0  0  0
 39 40  1  0  0  0  0
 39101  1  0  0  0  0
 40 41  1  0  0  0  0
 40 43  1  0  0  0  0
 40102  1  6  0  0  0
 41 42  1  0  0  0  0
 41 46  2  0  0  0  0
 43 44  1  0  0  0  0
 43 45  1  0  0  0  0
 43103  1  0  0  0  0
 44104  1  0  0  0  0
 44105  1  0  0  0  0
 44106  1  0  0  0  0
 45107  1  0  0  0  0
 45108  1  0  0  0  0
 45109  1  0  0  0  0
M  CHG  5   1   1   9   1  18   1  38   1  42  -1
M  END
