4ryg_ligand
 OpenBabel08222323353D

 77 79  0  0  1  0  0  0  0  0999 V2000
   44.1380  106.5840   12.0220 C   0  0  0  0  0  0  0  0  0  0  0  0
   42.7520  108.6330   11.6500 C   0  0  0  0  0  0  0  0  0  0  0  0
   37.6870  106.9640    8.7870 C   0  0  0  0  0  0  0  0  0  0  0  0
   47.6710  104.4690   13.5110 C   0  0  0  0  0  0  0  0  0  0  0  0
   45.3570  105.2340   13.8200 C   0  0  0  0  0  0  0  0  0  0  0  0
   45.0180  108.7490   12.8060 C   0  0  0  0  0  0  0  0  0  0  0  0
   46.5040  104.5750   14.3100 C   0  0  0  0  0  0  0  0  0  0  0  0
   43.1250  108.9260    9.0470 C   0  0  0  0  0  0  0  0  0  0  0  0
   41.0730  110.1750    9.0550 C   0  0  0  0  0  0  0  0  0  0  0  0
   36.9880  108.2760    8.4140 C   0  0  0  0  0  0  0  0  0  0  0  0
   49.5510  107.0650   10.2690 C   0  0  0  0  0  0  0  0  0  0  0  0
   49.0170  105.6200   10.1540 C   0  0  0  0  0  0  0  0  0  0  0  0
   49.5200  107.8190    8.9130 C   0  0  0  0  0  0  0  0  0  0  0  0
   45.7320  109.8180   11.9280 C   0  0  0  0  0  0  0  0  0  0  0  0
   44.5660  109.2250   14.2120 C   0  0  0  0  0  0  0  0  0  0  0  0
   35.7580  108.6370    9.0120 C   0  0  0  0  0  0  0  0  0  0  0  0
   37.5740  109.1250    7.4580 C   0  0  0  0  0  0  0  0  0  0  0  0
   48.8480  102.6300   14.7980 C   0  0  0  0  0  0  0  0  0  0  0  0
   43.9860  107.9590   12.1070 N   0  0  0  0  0  0  0  0  0  0  0  0
   42.2690  108.3750   10.2010 C   0  0  2  0  0  0  0  0  0  0  0  0
   39.9990  107.9800    9.3330 N   0  0  0  0  0  0  0  0  0  0  0  0
   45.3620  105.8370   12.5500 C   0  0  0  0  0  0  0  0  0  0  0  0
   40.8610  108.9520    9.9540 C   0  0  2  0  0  0  0  0  0  0  0  0
   46.5130  105.7560   11.7570 C   0  0  0  0  0  0  0  0  0  0  0  0
   47.6770  105.0810   12.2240 C   0  0  0  0  0  0  0  0  0  0  0  0
   42.2490  109.8080    8.2560 N   0  3  0  0  0  0  0  0  0  0  0  0
   43.3270  105.8310   11.4950 O   0  0  0  0  0  0  0  0  0  0  0  0
   48.8550  104.9870   11.4440 O   0  0  0  0  0  0  0  0  0  0  0  0
   48.8420  103.8030   13.9650 O   0  0  0  0  0  0  0  0  0  0  0  0
   50.6020  107.3970    8.0670 O   0  0  0  0  0  0  0  0  0  0  0  0
   50.1400  106.9140    6.7870 C   0  0  0  0  0  0  0  0  0  0  0  0
   35.1000  109.8240    8.6450 C   0  0  0  0  0  0  0  0  0  0  0  0
   36.9220  110.3210    7.1040 C   0  0  0  0  0  0  0  0  0  0  0  0
   35.6760  110.6600    7.6760 C   0  0  0  0  0  0  0  0  0  0  0  0
   38.8060  107.2640   10.1760 S   0  0  0  0  0  0  0  0  0  0  0  0
   39.3530  106.0000   10.6550 O   0  0  0  0  0  0  0  0  0  0  0  0
   38.2200  108.1830   11.1420 O   0  0  0  0  0  0  0  0  0  0  0  0
   42.9157  109.7160   11.7509 H   0  0  0  0  0  0  0  0  0  0  0  0
   41.9411  108.3204   12.3243 H   0  0  0  0  0  0  0  0  0  0  0  0
   38.2612  106.5944    7.9246 H   0  0  0  0  0  0  0  0  0  0  0  0
   36.9349  106.2148    9.0751 H   0  0  0  0  0  0  0  0  0  0  0  0
   44.4616  105.2759   14.4296 H   0  0  0  0  0  0  0  0  0  0  0  0
   45.8132  108.0193   13.0183 H   0  0  0  0  0  0  0  0  0  0  0  0
   46.4934  104.1461   15.3055 H   0  0  0  0  0  0  0  0  0  0  0  0
   43.4961  108.1003    8.4220 H   0  0  0  0  0  0  0  0  0  0  0  0
   43.9773  109.4960    9.4454 H   0  0  0  0  0  0  0  0  0  0  0  0
   41.2700  111.0756    9.6551 H   0  0  0  0  0  0  0  0  0  0  0  0
   40.1977  110.3473    8.4114 H   0  0  0  0  0  0  0  0  0  0  0  0
   50.5897  107.0298   10.6294 H   0  0  0  0  0  0  0  0  0  0  0  0
   48.9303  107.6141   10.9923 H   0  0  0  0  0  0  0  0  0  0  0  0
   49.7261  105.0280    9.5568 H   0  0  0  0  0  0  0  0  0  0  0  0
   48.0410  105.6435    9.6472 H   0  0  0  0  0  0  0  0  0  0  0  0
   49.6090  108.8994    9.0995 H   0  0  0  0  0  0  0  0  0  0  0  0
   48.5654  107.6116    8.4073 H   0  0  0  0  0  0  0  0  0  0  0  0
   46.4789  110.3512   12.5345 H   0  0  0  0  0  0  0  0  0  0  0  0
   44.9897  110.5348   11.5470 H   0  0  0  0  0  0  0  0  0  0  0  0
   46.2319  109.3234   11.0822 H   0  0  0  0  0  0  0  0  0  0  0  0
   44.0768  108.3937   14.7408 H   0  0  0  0  0  0  0  0  0  0  0  0
   43.8576  110.0598   14.1063 H   0  0  0  0  0  0  0  0  0  0  0  0
   45.4432  109.5588   14.7857 H   0  0  0  0  0  0  0  0  0  0  0  0
   35.3174  107.9906    9.7624 H   0  0  0  0  0  0  0  0  0  0  0  0
   38.5193  108.8606    6.9980 H   0  0  0  0  0  0  0  0  0  0  0  0
   49.8865  102.3267   14.9966 H   0  0  0  0  0  0  0  0  0  0  0  0
   48.3192  101.8132   14.2850 H   0  0  0  0  0  0  0  0  0  0  0  0
   48.3430  102.8533   15.7494 H   0  0  0  0  0  0  0  0  0  0  0  0
   42.2260  107.2820   10.0853 H   0  0  0  0  0  0  0  0  0  0  0  0
   40.1354  107.7421    8.3713 H   0  0  0  0  0  0  0  0  0  0  0  0
   40.4111  109.2635   10.9082 H   0  0  0  0  0  0  0  0  0  0  0  0
   46.5183  106.2133   10.7742 H   0  0  0  0  0  0  0  0  0  0  0  0
   41.9515  109.3260    7.4222 H   0  0  0  0  0  0  0  0  0  0  0  0
   42.7545  110.6416    7.9999 H   0  0  0  0  0  0  0  0  0  0  0  0
   51.0027  106.6044    6.1788 H   0  0  0  0  0  0  0  0  0  0  0  0
   49.5943  107.7156    6.2678 H   0  0  0  0  0  0  0  0  0  0  0  0
   49.4712  106.0541    6.9392 H   0  0  0  0  0  0  0  0  0  0  0  0
   34.1562  110.0911    9.1064 H   0  0  0  0  0  0  0  0  0  0  0  0
   37.3812  110.9892    6.3845 H   0  0  0  0  0  0  0  0  0  0  0  0
   35.1652  111.5648    7.3670 H   0  0  0  0  0  0  0  0  0  0  0  0
  1 19  1  0  0  0  0
  1 27  2  0  0  0  0
  2 20  1  0  0  0  0
  2 38  1  0  0  0  0
  2 39  1  0  0  0  0
  3 10  1  0  0  0  0
  3 40  1  0  0  0  0
  3 41  1  0  0  0  0
  4  7  2  0  0  0  0
  4 29  1  0  0  0  0
  5 42  1  0  0  0  0
  6 14  1  0  0  0  0
  6 15  1  0  0  0  0
  6 43  1  0  0  0  0
  7  5  1  0  0  0  0
  7 44  1  0  0  0  0
  8 26  1  0  0  0  0
  8 45  1  0  0  0  0
  8 46  1  0  0  0  0
  9 26  1  0  0  0  0
  9 47  1  0  0  0  0
  9 48  1  0  0  0  0
 10 16  2  0  0  0  0
 10 17  1  0  0  0  0
 11 13  1  0  0  0  0
 11 49  1  0  0  0  0
 11 50  1  0  0  0  0
 12 11  1  0  0  0  0
 12 51  1  0  0  0  0
 12 52  1  0  0  0  0
 13 30  1  0  0  0  0
 13 53  1  0  0  0  0
 13 54  1  0  0  0  0
 14 55  1  0  0  0  0
 14 56  1  0  0  0  0
 14 57  1  0  0  0  0
 15 58  1  0  0  0  0
 15 59  1  0  0  0  0
 15 60  1  0  0  0  0
 16 32  1  0  0  0  0
 16 61  1  0  0  0  0
 17 33  2  0  0  0  0
 17 62  1  0  0  0  0
 18 63  1  0  0  0  0
 18 64  1  0  0  0  0
 18 65  1  0  0  0  0
 19  2  1  0  0  0  0
 19  6  1  0  0  0  0
 20  8  1  0  0  0  0
 20 23  1  0  0  0  0
 20 66  1  6  0  0  0
 21 35  1  0  0  0  0
 21 67  1  0  0  0  0
 22  1  1  0  0  0  0
 22  5  2  0  0  0  0
 23  9  1  0  0  0  0
 23 21  1  0  0  0  0
 23 68  1  1  0  0  0
 24 22  1  0  0  0  0
 24 69  1  0  0  0  0
 25  4  1  0  0  0  0
 25 24  2  0  0  0  0
 25 28  1  0  0  0  0
 26 70  1  0  0  0  0
 26 71  1  0  0  0  0
 28 12  1  0  0  0  0
 29 18  1  0  0  0  0
 30 31  1  0  0  0  0
 31 72  1  0  0  0  0
 31 73  1  0  0  0  0
 31 74  1  0  0  0  0
 32 34  2  0  0  0  0
 32 75  1  0  0  0  0
 33 34  1  0  0  0  0
 33 76  1  0  0  0  0
 34 77  1  0  0  0  0
 35  3  1  0  0  0  0
 35 36  2  0  0  0  0
 35 37  2  0  0  0  0
M  CHG  1  26   1
M  END
