4s2i_ligand
 OpenBabel08222323353D

 30 30  0  0  1  0  0  0  0  0999 V2000
    8.6080   14.2430   14.9370 O   0  0  0  0  0  0  0  0  0  0  0  0
    8.6450   14.5330   13.7590 C   0  0  0  0  0  0  0  0  0  0  0  0
    9.9150   14.7630   13.0910 N   0  0  0  0  0  0  0  0  0  0  0  0
    9.9820   14.8500   11.6490 C   0  0  0  0  0  0  0  0  0  0  0  0
   11.1370   14.5810   13.8190 C   0  0  2  0  0  0  0  0  0  0  0  0
   11.9990   15.8500   13.7900 C   0  0  0  0  0  0  0  0  0  0  0  0
   11.8690   16.6830   12.8860 O   0  0  0  0  0  0  0  0  0  0  0  0
   12.9470   16.0610   14.8440 N   0  0  0  0  0  0  0  0  0  0  0  0
   11.8710   13.3090   13.3310 C   0  0  0  0  0  0  0  0  0  0  0  0
   11.7800   13.1220   11.8070 C   0  0  0  0  0  0  0  0  0  0  0  0
   10.4210   13.4310   11.2290 C   0  0  1  0  0  0  0  0  0  0  0  0
    9.4570   12.4890   11.7780 N   0  3  0  0  0  0  0  0  0  0  0  0
    9.7270   11.2050   11.4690 O   0  0  0  0  0  0  0  0  0  0  0  0
    9.1230   10.2850   12.5500 S   0  0  0  0  0  0  0  0  0  0  0  0
    7.6980   10.6490   12.7840 O   0  0  0  0  0  1  0  0  0  0  0  0
    9.9190   10.3670   13.8630 O   0  0  0  0  0  1  0  0  0  0  0  0
    9.3140    8.8880   12.0580 O   0  0  0  0  0  1  0  0  0  0  0  0
    7.7167   14.6218   13.1966 H   0  0  0  0  0  0  0  0  0  0  0  0
   10.7211   15.6010   11.3332 H   0  0  0  0  0  0  0  0  0  0  0  0
    8.9994   15.1009   11.2230 H   0  0  0  0  0  0  0  0  0  0  0  0
   10.8682   14.4081   14.8715 H   0  0  0  0  0  0  0  0  0  0  0  0
   13.5192   16.8811   14.8451 H   0  0  0  0  0  0  0  0  0  0  0  0
   13.0363   15.3881   15.5783 H   0  0  0  0  0  0  0  0  0  0  0  0
   11.4213   12.4328   13.8209 H   0  0  0  0  0  0  0  0  0  0  0  0
   12.9313   13.3835   13.6141 H   0  0  0  0  0  0  0  0  0  0  0  0
   12.0257   12.0759   11.5719 H   0  0  0  0  0  0  0  0  0  0  0  0
   12.5166   13.7872   11.3326 H   0  0  0  0  0  0  0  0  0  0  0  0
   10.4523   13.3527   10.1322 H   0  0  0  0  0  0  0  0  0  0  0  0
    8.5443   12.7192   11.4173 H   0  0  0  0  0  0  0  0  0  0  0  0
    9.4550   12.5824   12.7817 H   0  0  0  0  0  0  0  0  0  0  0  0
  1  2  2  0  0  0  0
  2  3  1  0  0  0  0
  2 18  1  0  0  0  0
  3  4  1  0  0  0  0
  3  5  1  0  0  0  0
  4 11  1  0  0  0  0
  4 19  1  0  0  0  0
  4 20  1  0  0  0  0
  5  6  1  0  0  0  0
  5  9  1  0  0  0  0
  5 21  1  1  0  0  0
  6  7  2  0  0  0  0
  6  8  1  0  0  0  0
  8 22  1  0  0  0  0
  8 23  1  0  0  0  0
  9 10  1  0  0  0  0
  9 24  1  0  0  0  0
  9 25  1  0  0  0  0
 10 11  1  0  0  0  0
 10 26  1  0  0  0  0
 10 27  1  0  0  0  0
 11 12  1  0  0  0  0
 11 28  1  6  0  0  0
 12 13  1  0  0  0  0
 12 29  1  0  0  0  0
 12 30  1  0  0  0  0
 13 14  1  0  0  0  0
 14 15  1  0  0  0  0
 14 16  1  0  0  0  0
 14 17  1  0  0  0  0
M  CHG  1  12   1
M  END
