4s3e_ligand
 OpenBabel08222323353D

 15 14  0  0  0  0  0  0  0  0999 V2000
   12.0190   20.7620  -15.8230 O   0  0  0  0  0  1  0  0  0  0  0  0
   12.5660   21.9060  -14.9490 P   0  0  0  0  0  0  0  0  0  0  0  0
   13.3510   21.4210  -13.6890 O   0  0  0  0  0  1  0  0  0  0  0  0
   13.3520   22.9500  -15.7250 O   0  0  0  0  0  0  0  0  0  0  0  0
   11.1830   22.6660  -14.4400 O   0  0  0  0  0  0  0  0  0  0  0  0
   11.0230   23.9600  -13.5390 P   0  0  1  0  0  0  0  0  0  0  0  0
    9.5150   24.2300  -13.4490 O   0  0  0  0  0  1  0  0  0  0  0  0
   11.8300   23.8400  -12.2190 O   0  0  0  0  0  0  0  0  0  0  0  0
   11.8900   25.1230  -14.2000 O   0  0  0  0  0  0  0  0  0  0  0  0
   11.4350   25.5820  -15.4110 C   0  0  0  0  0  0  0  0  0  0  0  0
   12.6160   26.3560  -15.9340 C   0  0  0  0  0  0  0  0  0  0  0  0
   13.6180   27.0130  -16.3780 C   0  0  0  0  0  0  0  0  0  0  0  0
   10.5578   26.2336  -15.2845 H   0  0  0  0  0  0  0  0  0  0  0  0
   11.1788   24.7480  -16.0809 H   0  0  0  0  0  0  0  0  0  0  0  0
   14.4461   27.5560  -16.7449 H   0  0  0  0  0  0  0  0  0  0  0  0
  1  2  1  0  0  0  0
  2  3  1  0  0  0  0
  2  4  2  0  0  0  0
  2  5  1  0  0  0  0
  5  6  1  0  0  0  0
  6  7  1  1  0  0  0
  6  8  2  0  0  0  0
  6  9  1  0  0  0  0
  9 10  1  0  0  0  0
 10 11  1  0  0  0  0
 10 13  1  0  0  0  0
 10 14  1  0  0  0  0
 11 12  3  0  0  0  0
 12 15  1  0  0  0  0
M  END
