4tju_ligand
 OpenBabel08222323353D

 30 32  0  0  0  0  0  0  0  0999 V2000
   24.4680   51.0930   -0.3170 C   0  0  0  0  0  0  0  0  0  0  0  0
   25.6580   50.6430    0.2970 C   0  0  0  0  0  0  0  0  0  0  0  0
   25.9420   49.2230    0.3270 C   0  0  0  0  0  0  0  0  0  0  0  0
   25.0860   48.2770   -0.3500 C   0  0  0  0  0  0  0  0  0  0  0  0
   23.9040   48.8020   -1.0400 C   0  0  0  0  0  0  0  0  0  0  0  0
   23.6470   50.1770   -1.0870 C   0  0  0  0  0  0  0  0  0  0  0  0
   27.0550   48.7610    1.0290 N   0  0  0  0  0  0  0  0  0  0  0  0
   27.2650   47.4480    1.0900 C   0  0  0  0  0  0  0  0  0  0  0  0
   26.4050   46.4700    0.4530 C   0  0  0  0  0  0  0  0  0  0  0  0
   25.3480   46.8820   -0.2800 N   0  0  0  0  0  0  0  0  0  0  0  0
   22.9730   47.8750   -1.8240 C   0  0  0  0  0  0  0  0  0  0  0  0
   23.0920   46.5310   -1.6380 N   0  0  0  0  0  0  0  0  0  0  0  0
   22.1850   48.3140   -2.6330 O   0  0  0  0  0  0  0  0  0  0  0  0
   26.6540   45.0160    0.6320 C   0  0  0  0  0  0  0  0  0  0  0  0
   26.2350   44.0930   -0.3510 C   0  0  0  0  0  0  0  0  0  0  0  0
   26.4000   42.7170   -0.1800 C   0  0  0  0  0  0  0  0  0  0  0  0
   26.9860   42.2530    1.0040 C   0  0  0  0  0  0  0  0  0  0  0  0
   27.3880   43.1210    2.0370 C   0  0  0  0  0  0  0  0  0  0  0  0
   27.1900   44.5060    1.8670 C   0  0  0  0  0  0  0  0  0  0  0  0
   27.1880   40.5560    1.1880 Cl  0  0  0  0  0  0  0  0  0  0  0  0
   24.1663   52.1289   -0.2123 H   0  0  0  0  0  0  0  0  0  0  0  0
   26.3493   51.3509    0.7398 H   0  0  0  0  0  0  0  0  0  0  0  0
   22.8360   50.5571   -1.6976 H   0  0  0  0  0  0  0  0  0  0  0  0
   28.1247   47.0910    1.6455 H   0  0  0  0  0  0  0  0  0  0  0  0
   22.4961   45.9024   -2.1377 H   0  0  0  0  0  0  0  0  0  0  0  0
   23.7753   46.1729   -1.0017 H   0  0  0  0  0  0  0  0  0  0  0  0
   25.7741   44.4615   -1.2603 H   0  0  0  0  0  0  0  0  0  0  0  0
   26.0809   42.0221   -0.9483 H   0  0  0  0  0  0  0  0  0  0  0  0
   27.8397   42.7328    2.9427 H   0  0  0  0  0  0  0  0  0  0  0  0
   27.4423   45.1899    2.6693 H   0  0  0  0  0  0  0  0  0  0  0  0
  1  2  2  0  0  0  0
  1  6  1  0  0  0  0
  1 21  1  0  0  0  0
  2  3  1  0  0  0  0
  2 22  1  0  0  0  0
  3  4  2  0  0  0  0
  3  7  1  0  0  0  0
  4  5  1  0  0  0  0
  4 10  1  0  0  0  0
  5  6  2  0  0  0  0
  5 11  1  0  0  0  0
  6 23  1  0  0  0  0
  7  8  2  0  0  0  0
  8  9  1  0  0  0  0
  8 24  1  0  0  0  0
  9 10  2  0  0  0  0
  9 14  1  0  0  0  0
 11 12  1  0  0  0  0
 11 13  2  0  0  0  0
 12 25  1  0  0  0  0
 12 26  1  0  0  0  0
 14 15  2  0  0  0  0
 14 19  1  0  0  0  0
 15 16  1  0  0  0  0
 15 27  1  0  0  0  0
 16 17  2  0  0  0  0
 16 28  1  0  0  0  0
 17 18  1  0  0  0  0
 17 20  1  0  0  0  0
 18 19  2  0  0  0  0
 18 29  1  0  0  0  0
 19 30  1  0  0  0  0
M  END
