4tjw_ligand
 OpenBabel08222323353D

 40 42  0  0  0  0  0  0  0  0999 V2000
   26.6540   42.8360    5.3290 C   0  0  0  0  0  0  0  0  0  0  0  0
   28.0980   43.0300    4.6630 N   0  3  0  0  0  0  0  0  0  0  0  0
   28.3380   44.4530    4.7190 C   0  0  0  0  0  0  0  0  0  0  0  0
   28.2410   42.6420    3.1270 C   0  0  0  0  0  0  0  0  0  0  0  0
   27.0970   43.2150    2.2510 C   0  0  0  0  0  0  0  0  0  0  0  0
   25.9560   42.7740    2.4420 O   0  0  0  0  0  0  0  0  0  0  0  0
   27.2840   44.1690    1.2860 N   0  0  0  0  0  0  0  0  0  0  0  0
   26.1990   44.7660    0.4670 C   0  0  0  0  0  0  0  0  0  0  0  0
   26.0210   46.1070    0.4870 C   0  0  0  0  0  0  0  0  0  0  0  0
   25.0010   46.7760   -0.2340 C   0  0  0  0  0  0  0  0  0  0  0  0
   24.8420   48.2100   -0.2300 C   0  0  0  0  0  0  0  0  0  0  0  0
   25.6790   49.1200    0.5220 C   0  0  0  0  0  0  0  0  0  0  0  0
   25.4320   50.4710    0.4890 C   0  0  0  0  0  0  0  0  0  0  0  0
   24.2160   50.9970   -0.2330 C   0  0  0  0  0  0  0  0  0  0  0  0
   23.4250   50.1380   -0.9980 C   0  0  0  0  0  0  0  0  0  0  0  0
   23.7160   48.7940   -0.9970 C   0  0  0  0  0  0  0  0  0  0  0  0
   22.7770   47.9180   -1.8010 C   0  0  0  0  0  0  0  0  0  0  0  0
   21.8310   48.3070   -2.5260 O   0  0  0  0  0  0  0  0  0  0  0  0
   23.0210   46.6140   -1.7950 N   0  0  0  0  0  0  0  0  0  0  0  0
   24.0830   45.9860   -1.0040 C   0  0  0  0  0  0  0  0  0  0  0  0
   24.2140   44.5460   -1.0430 C   0  0  0  0  0  0  0  0  0  0  0  0
   25.2670   43.9520   -0.3270 C   0  0  0  0  0  0  0  0  0  0  0  0
   26.6939   43.1392    6.3857 H   0  0  0  0  0  0  0  0  0  0  0  0
   26.3583   41.7786    5.2618 H   0  0  0  0  0  0  0  0  0  0  0  0
   25.9183   43.4570    4.7969 H   0  0  0  0  0  0  0  0  0  0  0  0
   28.7813   42.5167    5.1976 H   0  0  0  0  0  0  0  0  0  0  0  0
   29.3201   44.6768    4.2770 H   0  0  0  0  0  0  0  0  0  0  0  0
   28.3230   44.7864    5.7671 H   0  0  0  0  0  0  0  0  0  0  0  0
   27.5537   44.9796    4.1554 H   0  0  0  0  0  0  0  0  0  0  0  0
   28.2342   41.5455    3.0398 H   0  0  0  0  0  0  0  0  0  0  0  0
   29.1987   43.0337    2.7537 H   0  0  0  0  0  0  0  0  0  0  0  0
   28.2180   44.4860    1.1214 H   0  0  0  0  0  0  0  0  0  0  0  0
   26.6971   46.7035    1.0888 H   0  0  0  0  0  0  0  0  0  0  0  0
   26.5025   48.7349    1.1125 H   0  0  0  0  0  0  0  0  0  0  0  0
   26.1102   51.1586    0.9813 H   0  0  0  0  0  0  0  0  0  0  0  0
   23.9555   52.0465   -0.1573 H   0  0  0  0  0  0  0  0  0  0  0  0
   22.5969   50.5232   -1.5819 H   0  0  0  0  0  0  0  0  0  0  0  0
   22.4466   46.0250   -2.3635 H   0  0  0  0  0  0  0  0  0  0  0  0
   23.5170   43.9401   -1.6106 H   0  0  0  0  0  0  0  0  0  0  0  0
   25.3943   42.8760   -0.3606 H   0  0  0  0  0  0  0  0  0  0  0  0
  1  2  1  0  0  0  0
  1 23  1  0  0  0  0
  1 24  1  0  0  0  0
  1 25  1  0  0  0  0
  2  3  1  0  0  0  0
  2  4  1  0  0  0  0
  2 26  1  0  0  0  0
  3 27  1  0  0  0  0
  3 28  1  0  0  0  0
  3 29  1  0  0  0  0
  4  5  1  0  0  0  0
  4 30  1  0  0  0  0
  4 31  1  0  0  0  0
  5  6  2  0  0  0  0
  5  7  1  0  0  0  0
  7  8  1  0  0  0  0
  7 32  1  0  0  0  0
  8  9  2  0  0  0  0
  8 22  1  0  0  0  0
  9 10  1  0  0  0  0
  9 33  1  0  0  0  0
 10 11  1  0  0  0  0
 10 20  2  0  0  0  0
 11 12  2  0  0  0  0
 11 16  1  0  0  0  0
 12 13  1  0  0  0  0
 12 34  1  0  0  0  0
 13 14  2  0  0  0  0
 13 35  1  0  0  0  0
 14 15  1  0  0  0  0
 14 36  1  0  0  0  0
 15 16  2  0  0  0  0
 15 37  1  0  0  0  0
 16 17  1  0  0  0  0
 17 18  2  0  0  0  0
 17 19  1  0  0  0  0
 19 20  1  0  0  0  0
 19 38  1  0  0  0  0
 20 21  1  0  0  0  0
 21 22  2  0  0  0  0
 21 39  1  0  0  0  0
 22 40  1  0  0  0  0
M  CHG  1   2   1
M  END
