4tk0_ligand
 OpenBabel08222323353D

 49 51  0  0  0  0  0  0  0  0999 V2000
   22.0200   48.1600   -2.3370 O   0  0  0  0  0  0  0  0  0  0  0  0
   22.8700   47.7660   -1.5460 C   0  0  0  0  0  0  0  0  0  0  0  0
   23.0630   46.4180   -1.4080 N   0  0  0  0  0  0  0  0  0  0  0  0
   24.0620   45.8500   -0.4840 C   0  0  0  0  0  0  0  0  0  0  0  0
   25.2830   46.7270   -0.2390 C   0  0  0  0  0  0  0  0  0  0  0  0
   24.9820   48.2050   -0.1980 C   0  0  0  0  0  0  0  0  0  0  0  0
   25.9170   49.1510    0.3850 C   0  0  0  0  0  0  0  0  0  0  0  0
   26.9080   48.6300    1.2110 O   0  0  0  0  0  0  0  0  0  0  0  0
   28.1020   47.9490    0.8160 C   0  0  0  0  0  0  0  0  0  0  0  0
   28.5240   47.2630    2.1710 C   0  0  0  0  0  0  0  0  0  0  0  0
   29.2550   45.9330    2.0130 C   0  0  0  0  0  0  0  0  0  0  0  0
   28.4880   44.7600    2.7530 C   0  0  0  0  0  0  0  0  0  0  0  0
   27.2130   44.3190    2.0180 N   0  3  0  0  0  0  0  0  0  0  0  0
   26.3490   43.2850    2.7400 C   0  0  0  0  0  0  0  0  0  0  0  0
   26.5610   41.7580    2.3560 C   0  0  0  0  0  0  0  0  0  0  0  0
   26.9310   41.5020    0.8610 C   0  0  0  0  0  0  0  0  0  0  0  0
   26.7690   42.7670    0.0420 C   0  0  0  0  0  0  0  0  0  0  0  0
   27.5940   43.8990    0.6190 C   0  0  0  0  0  0  0  0  0  0  0  0
   25.5260   50.5120    0.4770 C   0  0  0  0  0  0  0  0  0  0  0  0
   24.2850   50.9820   -0.0870 C   0  0  0  0  0  0  0  0  0  0  0  0
   23.4710   50.0850   -0.8130 C   0  0  0  0  0  0  0  0  0  0  0  0
   23.7880   48.7080   -0.7970 C   0  0  0  0  0  0  0  0  0  0  0  0
   22.5049   45.7941   -1.9550 H   0  0  0  0  0  0  0  0  0  0  0  0
   24.4075   44.8927   -0.9012 H   0  0  0  0  0  0  0  0  0  0  0  0
   23.5699   45.6720    0.4835 H   0  0  0  0  0  0  0  0  0  0  0  0
   26.0072   46.5443   -1.0466 H   0  0  0  0  0  0  0  0  0  0  0  0
   25.7279   46.4383    0.7247 H   0  0  0  0  0  0  0  0  0  0  0  0
   28.8703   48.6531    0.4640 H   0  0  0  0  0  0  0  0  0  0  0  0
   27.9009   47.2039    0.0322 H   0  0  0  0  0  0  0  0  0  0  0  0
   27.6140   47.0853    2.7628 H   0  0  0  0  0  0  0  0  0  0  0  0
   29.1851   47.9547    2.7137 H   0  0  0  0  0  0  0  0  0  0  0  0
   30.2642   46.0263    2.4405 H   0  0  0  0  0  0  0  0  0  0  0  0
   29.3311   45.6914    0.9426 H   0  0  0  0  0  0  0  0  0  0  0  0
   28.2107   45.1033    3.7606 H   0  0  0  0  0  0  0  0  0  0  0  0
   29.1632   43.8953    2.8331 H   0  0  0  0  0  0  0  0  0  0  0  0
   26.6350   45.1403    1.9319 H   0  0  0  0  0  0  0  0  0  0  0  0
   25.2971   43.5335    2.5356 H   0  0  0  0  0  0  0  0  0  0  0  0
   26.5466   43.3846    3.8175 H   0  0  0  0  0  0  0  0  0  0  0  0
   25.6280   41.2179    2.5745 H   0  0  0  0  0  0  0  0  0  0  0  0
   27.3718   41.3575    2.9822 H   0  0  0  0  0  0  0  0  0  0  0  0
   26.2703   40.7222    0.4544 H   0  0  0  0  0  0  0  0  0  0  0  0
   27.9763   41.1649    0.8008 H   0  0  0  0  0  0  0  0  0  0  0  0
   25.7088   43.0601    0.0394 H   0  0  0  0  0  0  0  0  0  0  0  0
   27.0981   42.5720   -0.9893 H   0  0  0  0  0  0  0  0  0  0  0  0
   28.6468   43.5807    0.6333 H   0  0  0  0  0  0  0  0  0  0  0  0
   27.4838   44.7720   -0.0411 H   0  0  0  0  0  0  0  0  0  0  0  0
   26.1764   51.2157    0.9838 H   0  0  0  0  0  0  0  0  0  0  0  0
   23.9799   52.0138    0.0450 H   0  0  0  0  0  0  0  0  0  0  0  0
   22.6167   50.4470   -1.3736 H   0  0  0  0  0  0  0  0  0  0  0  0
  1  2  2  0  0  0  0
  2  3  1  0  0  0  0
  2 22  1  0  0  0  0
  3  4  1  0  0  0  0
  3 23  1  0  0  0  0
  4  5  1  0  0  0  0
  4 24  1  0  0  0  0
  4 25  1  0  0  0  0
  5  6  1  0  0  0  0
  5 26  1  0  0  0  0
  5 27  1  0  0  0  0
  6  7  2  0  0  0  0
  6 22  1  0  0  0  0
  7  8  1  0  0  0  0
  7 19  1  0  0  0  0
  8  9  1  0  0  0  0
  9 10  1  0  0  0  0
  9 28  1  0  0  0  0
  9 29  1  0  0  0  0
 10 11  1  0  0  0  0
 10 30  1  0  0  0  0
 10 31  1  0  0  0  0
 11 12  1  0  0  0  0
 11 32  1  0  0  0  0
 11 33  1  0  0  0  0
 12 13  1  0  0  0  0
 12 34  1  0  0  0  0
 12 35  1  0  0  0  0
 13 14  1  0  0  0  0
 13 18  1  0  0  0  0
 13 36  1  0  0  0  0
 14 15  1  0  0  0  0
 14 37  1  0  0  0  0
 14 38  1  0  0  0  0
 15 16  1  0  0  0  0
 15 39  1  0  0  0  0
 15 40  1  0  0  0  0
 16 17  1  0  0  0  0
 16 41  1  0  0  0  0
 16 42  1  0  0  0  0
 17 18  1  0  0  0  0
 17 43  1  0  0  0  0
 17 44  1  0  0  0  0
 18 45  1  0  0  0  0
 18 46  1  0  0  0  0
 19 20  2  0  0  0  0
 19 47  1  0  0  0  0
 20 21  1  0  0  0  0
 20 48  1  0  0  0  0
 21 22  2  0  0  0  0
 21 49  1  0  0  0  0
M  CHG  1  13   1
M  END
