4tk3_ligand
 OpenBabel08222323353D

144146  0  0  1  0  0  0  0  0999 V2000
  251.4240  195.3280  101.1200 N   0  3  0  0  0  0  0  0  0  0  0  0
  252.6020  195.2130  101.9710 C   0  0  2  0  0  0  0  0  0  0  0  0
  253.3660  196.5270  102.0670 C   0  0  0  0  0  0  0  0  0  0  0  0
  253.5690  197.2170  101.0680 O   0  0  0  0  0  0  0  0  0  0  0  0
  253.5340  194.1150  101.4540 C   0  0  0  0  0  0  0  0  0  0  0  0
  254.8870  194.1130  102.1100 C   0  0  0  0  0  0  0  0  0  0  0  0
  255.0680  193.5240  103.3510 C   0  0  0  0  0  0  0  0  0  0  0  0
  255.9770  194.7020  101.4870 C   0  0  0  0  0  0  0  0  0  0  0  0
  256.3100  193.5220  103.9600 C   0  0  0  0  0  0  0  0  0  0  0  0
  257.2210  194.7050  102.0920 C   0  0  0  0  0  0  0  0  0  0  0  0
  257.3880  194.1120  103.3290 C   0  0  0  0  0  0  0  0  0  0  0  0
  253.7960  196.8600  103.2790 N   0  0  0  0  0  0  0  0  0  0  0  0
  254.6250  198.0360  103.5050 C   0  0  2  0  0  0  0  0  0  0  0  0
  255.5530  197.8130  104.6920 C   0  0  0  0  0  0  0  0  0  0  0  0
  255.1430  197.2760  105.7200 O   0  0  0  0  0  0  0  0  0  0  0  0
  253.7580  199.2750  103.7360 C   0  0  0  0  0  0  0  0  0  0  0  0
  254.5610  200.4220  103.9580 O   0  0  0  0  0  0  0  0  0  0  0  0
  256.8060  198.2250  104.5430 N   0  0  0  0  0  0  0  0  0  0  0  0
  257.7830  198.0920  105.6150 C   0  0  2  0  0  0  0  0  0  0  0  0
  257.6200  199.2440  106.6050 C   0  0  0  0  0  0  0  0  0  0  0  0
  258.2570  199.2750  107.6590 O   0  0  0  0  0  0  0  0  0  0  0  0
  259.2240  198.0590  105.0640 C   0  0  2  0  0  0  0  0  0  0  0  0
  260.1610  197.3390  106.0370 C   0  0  0  0  0  0  0  0  0  0  0  0
  259.7080  199.4630  104.7300 C   0  0  0  0  0  0  0  0  0  0  0  0
  259.8640  195.8660  106.1820 C   0  0  0  0  0  0  0  0  0  0  0  0
  256.7550  200.1890  106.2530 N   0  0  0  0  0  0  0  0  0  0  0  0
  256.4090  201.2980  107.1340 C   0  0  2  0  0  0  0  0  0  0  0  0
  255.0720  201.0190  107.8130 C   0  0  0  0  0  0  0  0  0  0  0  0
  254.1250  200.5680  107.1660 O   0  0  0  0  0  0  0  0  0  0  0  0
  256.3350  202.6320  106.3600 C   0  0  0  0  0  0  0  0  0  0  0  0
  255.8820  203.7640  107.2700 C   0  0  0  0  0  0  0  0  0  0  0  0
  257.6810  202.9540  105.7320 C   0  0  0  0  0  0  0  0  0  0  0  0
  255.0030  201.2760  109.1160 N   0  0  0  0  0  0  0  0  0  0  0  0
  253.7920  201.0430  109.8850 C   0  0  0  0  0  0  0  0  0  0  0  0
  252.5730  201.7620  109.3380 C   0  0  0  0  0  0  0  0  0  0  0  0
  252.6150  202.9640  109.0780 O   0  0  0  0  0  0  0  0  0  0  0  0
  251.4860  201.0180  109.1610 N   0  0  0  0  0  0  0  0  0  0  0  0
  250.2490  201.5740  108.6240 C   0  0  2  0  0  0  0  0  0  0  0  0
  249.2990  201.9540  109.7550 C   0  0  0  0  0  0  0  0  0  0  0  0
  249.5260  201.6000  110.9120 O   0  0  0  0  0  0  0  0  0  0  0  0
  249.5480  200.5800  107.6740 C   0  0  2  0  0  0  0  0  0  0  0  0
  250.5240  199.7180  107.0760 O   0  0  0  0  0  0  0  0  0  0  0  0
  248.7900  201.3180  106.5770 C   0  0  0  0  0  0  0  0  0  0  0  0
  248.2380  202.6770  109.4150 N   0  0  0  0  0  0  0  0  0  0  0  0
  247.2760  203.1450  110.4040 C   0  0  2  0  0  0  0  0  0  0  0  0
  245.8400  202.8680  109.9790 C   0  0  0  0  0  0  0  0  0  0  0  0
  245.5650  202.6130  108.8060 O   0  0  0  0  0  0  0  0  0  0  0  0
  247.4560  204.6440  110.6520 C   0  0  0  0  0  0  0  0  0  0  0  0
  247.9830  205.0660  112.0230 C   0  0  0  0  0  0  0  0  0  0  0  0
  248.1170  206.5790  112.0960 C   0  0  0  0  0  0  0  0  0  0  0  0
  247.0780  204.5500  113.1300 C   0  0  0  0  0  0  0  0  0  0  0  0
  244.9300  202.9190  110.9460 N   0  0  0  0  0  0  0  0  0  0  0  0
  243.5030  202.8220  110.6710 C   0  0  2  0  0  0  0  0  0  0  0  0
  242.6940  203.3620  111.8440 C   0  0  0  0  0  0  0  0  0  0  0  0
  242.7050  202.7830  112.9300 O   0  0  0  0  0  0  0  0  0  0  0  0
  243.0970  201.3780  110.3670 C   0  0  0  0  0  0  0  0  0  0  0  0
  242.5700  201.1880  108.9620 C   0  0  0  0  0  0  0  0  0  0  0  0
  242.3790  202.2770  108.1190 C   0  0  0  0  0  0  0  0  0  0  0  0
  242.2590  199.9240  108.4780 C   0  0  0  0  0  0  0  0  0  0  0  0
  241.8990  202.1120  106.8340 C   0  0  0  0  0  0  0  0  0  0  0  0
  241.7770  199.7490  107.1930 C   0  0  0  0  0  0  0  0  0  0  0  0
  241.5990  200.8470  106.3770 C   0  0  0  0  0  0  0  0  0  0  0  0
  241.1190  200.6800  105.0980 O   0  0  0  0  0  0  0  0  0  0  0  0
  241.9940  204.4840  111.6210 N   0  0  0  0  0  0  0  0  0  0  0  0
  241.1290  205.1330  112.6140 C   0  0  2  0  0  0  0  0  0  0  0  0
  240.0700  204.1910  113.1790 C   0  0  0  0  0  0  0  0  0  0  0  0
  239.0300  204.6710  113.6290 O   0  5  0  0  0  0  0  0  0  0  0  0
  240.4720  206.2710  111.8200 C   0  0  0  0  0  0  0  0  0  0  0  0
  240.6890  205.9260  110.3740 C   0  0  0  0  0  0  0  0  0  0  0  0
  241.9950  205.2100  110.3410 C   0  0  0  0  0  0  0  0  0  0  0  0
  250.9482  194.4401  101.0831 H   0  0  0  0  0  0  0  0  0  0  0  0
  251.7060  195.5970  100.1904 H   0  0  0  0  0  0  0  0  0  0  0  0
  250.8032  196.0263  101.4981 H   0  0  0  0  0  0  0  0  0  0  0  0
  252.2655  194.9370  102.9812 H   0  0  0  0  0  0  0  0  0  0  0  0
  253.6727  194.2580  100.3722 H   0  0  0  0  0  0  0  0  0  0  0  0
  253.0578  193.1405  101.6370 H   0  0  0  0  0  0  0  0  0  0  0  0
  254.2259  193.0590  103.8508 H   0  0  0  0  0  0  0  0  0  0  0  0
  255.8528  195.1653  100.5149 H   0  0  0  0  0  0  0  0  0  0  0  0
  256.4373  193.0580  104.9314 H   0  0  0  0  0  0  0  0  0  0  0  0
  258.0642  195.1722  101.5961 H   0  0  0  0  0  0  0  0  0  0  0  0
  258.3628  194.1098  103.8032 H   0  0  0  0  0  0  0  0  0  0  0  0
  253.5433  196.2868  104.0585 H   0  0  0  0  0  0  0  0  0  0  0  0
  255.2398  198.2044  102.6085 H   0  0  0  0  0  0  0  0  0  0  0  0
  253.1185  199.1079  104.6152 H   0  0  0  0  0  0  0  0  0  0  0  0
  253.1274  199.4432  102.8505 H   0  0  0  0  0  0  0  0  0  0  0  0
  254.0013  201.1767  104.0985 H   0  0  0  0  0  0  0  0  0  0  0  0
  257.0855  198.6359  103.6752 H   0  0  0  0  0  0  0  0  0  0  0  0
  257.5935  197.1456  106.1425 H   0  0  0  0  0  0  0  0  0  0  0  0
  259.2125  197.4819  104.1276 H   0  0  0  0  0  0  0  0  0  0  0  0
  260.0664  197.8120  107.0256 H   0  0  0  0  0  0  0  0  0  0  0  0
  261.1932  197.4517  105.6739 H   0  0  0  0  0  0  0  0  0  0  0  0
  259.0037  199.9368  104.0304 H   0  0  0  0  0  0  0  0  0  0  0  0
  260.7038  199.4069  104.2660 H   0  0  0  0  0  0  0  0  0  0  0  0
  259.7662  200.0599  105.6521 H   0  0  0  0  0  0  0  0  0  0  0  0
  260.5733  195.4172  106.8929 H   0  0  0  0  0  0  0  0  0  0  0  0
  259.9646  195.3736  105.2035 H   0  0  0  0  0  0  0  0  0  0  0  0
  258.8378  195.7339  106.5553 H   0  0  0  0  0  0  0  0  0  0  0  0
  256.3258  200.1378  105.3513 H   0  0  0  0  0  0  0  0  0  0  0  0
  257.1874  201.3859  107.9062 H   0  0  0  0  0  0  0  0  0  0  0  0
  255.5948  202.5222  105.5537 H   0  0  0  0  0  0  0  0  0  0  0  0
  255.8377  204.7010  106.6954 H   0  0  0  0  0  0  0  0  0  0  0  0
  256.5959  203.8759  108.0993 H   0  0  0  0  0  0  0  0  0  0  0  0
  254.8848  203.5337  107.6732 H   0  0  0  0  0  0  0  0  0  0  0  0
  257.9890  202.1239  105.0792 H   0  0  0  0  0  0  0  0  0  0  0  0
  258.4309  203.0951  106.5243 H   0  0  0  0  0  0  0  0  0  0  0  0
  257.5973  203.8760  105.1379 H   0  0  0  0  0  0  0  0  0  0  0  0
  255.8095  201.6409  109.5811 H   0  0  0  0  0  0  0  0  0  0  0  0
  253.9639  201.3864  110.9158 H   0  0  0  0  0  0  0  0  0  0  0  0
  253.5853  199.9626  109.8881 H   0  0  0  0  0  0  0  0  0  0  0  0
  251.5171  200.0483  109.4032 H   0  0  0  0  0  0  0  0  0  0  0  0
  250.4983  202.4817  108.0549 H   0  0  0  0  0  0  0  0  0  0  0  0
  248.8366  199.9741  108.2543 H   0  0  0  0  0  0  0  0  0  0  0  0
  250.9798  199.2372  107.7569 H   0  0  0  0  0  0  0  0  0  0  0  0
  248.3005  200.5884  105.9151 H   0  0  0  0  0  0  0  0  0  0  0  0
  249.4935  201.9291  105.9925 H   0  0  0  0  0  0  0  0  0  0  0  0
  248.0288  201.9691  107.0316 H   0  0  0  0  0  0  0  0  0  0  0  0
  248.0953  202.9068  108.4523 H   0  0  0  0  0  0  0  0  0  0  0  0
  247.4659  202.6088  111.3455 H   0  0  0  0  0  0  0  0  0  0  0  0
  246.4755  205.1227  110.5126 H   0  0  0  0  0  0  0  0  0  0  0  0
  248.1597  205.0225  109.8960 H   0  0  0  0  0  0  0  0  0  0  0  0
  248.9808  204.6240  112.1606 H   0  0  0  0  0  0  0  0  0  0  0  0
  248.4969  206.8660  113.0876 H   0  0  0  0  0  0  0  0  0  0  0  0
  247.1330  207.0426  111.9321 H   0  0  0  0  0  0  0  0  0  0  0  0
  248.8180  206.9229  111.3212 H   0  0  0  0  0  0  0  0  0  0  0  0
  246.9966  203.4555  113.0567 H   0  0  0  0  0  0  0  0  0  0  0  0
  246.0794  204.9996  113.0268 H   0  0  0  0  0  0  0  0  0  0  0  0
  247.5031  204.8214  114.1076 H   0  0  0  0  0  0  0  0  0  0  0  0
  245.2345  203.0274  111.8923 H   0  0  0  0  0  0  0  0  0  0  0  0
  243.2814  203.4358  109.7855 H   0  0  0  0  0  0  0  0  0  0  0  0
  242.3124  201.0789  111.0776 H   0  0  0  0  0  0  0  0  0  0  0  0
  243.9776  200.7323  110.4999 H   0  0  0  0  0  0  0  0  0  0  0  0
  242.6109  203.2737  108.4765 H   0  0  0  0  0  0  0  0  0  0  0  0
  242.3962  199.0598  109.1179 H   0  0  0  0  0  0  0  0  0  0  0  0
  241.7593  202.9722  106.1893 H   0  0  0  0  0  0  0  0  0  0  0  0
  241.5407  198.7554  106.8297 H   0  0  0  0  0  0  0  0  0  0  0  0
  241.0551  201.5266  104.6719 H   0  0  0  0  0  0  0  0  0  0  0  0
  241.7310  205.5322  113.4436 H   0  0  0  0  0  0  0  0  0  0  0  0
  240.2568  202.9449  113.1847 O   0  0  0  0  0  0  0  0  0  0  0  0
  240.9473  207.2331  112.0615 H   0  0  0  0  0  0  0  0  0  0  0  0
  239.3967  206.3265  112.0451 H   0  0  0  0  0  0  0  0  0  0  0  0
  240.7326  206.8383  109.7610 H   0  0  0  0  0  0  0  0  0  0  0  0
  239.8819  205.2754  110.0063 H   0  0  0  0  0  0  0  0  0  0  0  0
  242.0456  204.5149  109.4900 H   0  0  0  0  0  0  0  0  0  0  0  0
  242.8350  205.9181  110.2865 H   0  0  0  0  0  0  0  0  0  0  0  0
  1  2  1  0  0  0  0
  1 71  1  0  0  0  0
  1 72  1  0  0  0  0
  1 73  1  0  0  0  0
  2  3  1  0  0  0  0
  2  5  1  0  0  0  0
  2 74  1  1  0  0  0
  3  4  2  0  0  0  0
  3 12  1  0  0  0  0
  5  6  1  0  0  0  0
  5 75  1  0  0  0  0
  5 76  1  0  0  0  0
  6  7  2  0  0  0  0
  6  8  1  0  0  0  0
  7  9  1  0  0  0  0
  7 77  1  0  0  0  0
  8 10  2  0  0  0  0
  8 78  1  0  0  0  0
  9 11  2  0  0  0  0
  9 79  1  0  0  0  0
 10 11  1  0  0  0  0
 10 80  1  0  0  0  0
 11 81  1  0  0  0  0
 12 13  1  0  0  0  0
 12 82  1  0  0  0  0
 13 14  1  0  0  0  0
 13 16  1  0  0  0  0
 13 83  1  6  0  0  0
 14 15  2  0  0  0  0
 14 18  1  0  0  0  0
 16 17  1  0  0  0  0
 16 84  1  0  0  0  0
 16 85  1  0  0  0  0
 17 86  1  0  0  0  0
 18 19  1  0  0  0  0
 18 87  1  0  0  0  0
 19 20  1  0  0  0  0
 19 22  1  0  0  0  0
 19 88  1  1  0  0  0
 20 21  2  0  0  0  0
 20 26  1  0  0  0  0
 22 23  1  0  0  0  0
 22 24  1  0  0  0  0
 22 89  1  6  0  0  0
 23 25  1  0  0  0  0
 23 90  1  0  0  0  0
 23 91  1  0  0  0  0
 24 92  1  0  0  0  0
 24 93  1  0  0  0  0
 24 94  1  0  0  0  0
 25 95  1  0  0  0  0
 25 96  1  0  0  0  0
 25 97  1  0  0  0  0
 26 27  1  0  0  0  0
 26 98  1  0  0  0  0
 27 28  1  0  0  0  0
 27 30  1  0  0  0  0
 27 99  1  1  0  0  0
 28 29  2  0  0  0  0
 28 33  1  0  0  0  0
 30 31  1  0  0  0  0
 30 32  1  0  0  0  0
 30100  1  0  0  0  0
 31101  1  0  0  0  0
 31102  1  0  0  0  0
 31103  1  0  0  0  0
 32104  1  0  0  0  0
 32105  1  0  0  0  0
 32106  1  0  0  0  0
 33 34  1  0  0  0  0
 33107  1  0  0  0  0
 34 35  1  0  0  0  0
 34108  1  0  0  0  0
 34109  1  0  0  0  0
 35 36  2  0  0  0  0
 35 37  1  0  0  0  0
 37 38  1  0  0  0  0
 37110  1  0  0  0  0
 38 39  1  0  0  0  0
 38 41  1  0  0  0  0
 38111  1  6  0  0  0
 39 40  2  0  0  0  0
 39 44  1  0  0  0  0
 41 42  1  0  0  0  0
 41 43  1  0  0  0  0
 41112  1  1  0  0  0
 42113  1  0  0  0  0
 43114  1  0  0  0  0
 43115  1  0  0  0  0
 43116  1  0  0  0  0
 44 45  1  0  0  0  0
 44117  1  0  0  0  0
 45 46  1  0  0  0  0
 45 48  1  0  0  0  0
 45118  1  1  0  0  0
 46 47  2  0  0  0  0
 46 52  1  0  0  0  0
 48 49  1  0  0  0  0
 48119  1  0  0  0  0
 48120  1  0  0  0  0
 49 50  1  0  0  0  0
 49 51  1  0  0  0  0
 49121  1  0  0  0  0
 50122  1  0  0  0  0
 50123  1  0  0  0  0
 50124  1  0  0  0  0
 51125  1  0  0  0  0
 51126  1  0  0  0  0
 51127  1  0  0  0  0
 52 53  1  0  0  0  0
 52128  1  0  0  0  0
 53 54  1  0  0  0  0
 53 56  1  0  0  0  0
 53129  1  6  0  0  0
 54 55  2  0  0  0  0
 54 64  1  0  0  0  0
 56 57  1  0  0  0  0
 56130  1  0  0  0  0
 56131  1  0  0  0  0
 57 58  2  0  0  0  0
 57 59  1  0  0  0  0
 58 60  1  0  0  0  0
 58132  1  0  0  0  0
 59 61  2  0  0  0  0
 59133  1  0  0  0  0
 60 62  2  0  0  0  0
 60134  1  0  0  0  0
 61 62  1  0  0  0  0
 61135  1  0  0  0  0
 62 63  1  0  0  0  0
 63136  1  0  0  0  0
 64 65  1  0  0  0  0
 64 70  1  0  0  0  0
 65 66  1  0  0  0  0
 65 68  1  0  0  0  0
 65137  1  1  0  0  0
 66 67  1  0  0  0  0
 66138  2  0  0  0  0
 68 69  1  0  0  0  0
 68139  1  0  0  0  0
 68140  1  0  0  0  0
 69 70  1  0  0  0  0
 69141  1  0  0  0  0
 69142  1  0  0  0  0
 70143  1  0  0  0  0
 70144  1  0  0  0  0
M  CHG  2   1   1  67  -1
M  END
