4tk4_ligand
 OpenBabel08222323353D

144146  0  0  1  0  0  0  0  0999 V2000
  -73.6920   -9.5800  -32.9660 N   0  3  0  0  0  0  0  0  0  0  0  0
  -73.7270  -10.4170  -31.7720 C   0  0  2  0  0  0  0  0  0  0  0  0
  -74.4980  -11.7120  -32.0150 C   0  0  0  0  0  0  0  0  0  0  0  0
  -75.7000  -11.6930  -32.2810 O   0  0  0  0  0  0  0  0  0  0  0  0
  -74.3440   -9.6490  -30.6010 C   0  0  0  0  0  0  0  0  0  0  0  0
  -74.7470  -10.5210  -29.4480 C   0  0  0  0  0  0  0  0  0  0  0  0
  -73.7910  -11.0930  -28.6260 C   0  0  0  0  0  0  0  0  0  0  0  0
  -76.0830  -10.7670  -29.1850 C   0  0  0  0  0  0  0  0  0  0  0  0
  -74.1630  -11.8970  -27.5640 C   0  0  0  0  0  0  0  0  0  0  0  0
  -76.4600  -11.5680  -28.1260 C   0  0  0  0  0  0  0  0  0  0  0  0
  -75.4990  -12.1330  -27.3150 C   0  0  0  0  0  0  0  0  0  0  0  0
  -73.7920  -12.8340  -31.9240 N   0  0  0  0  0  0  0  0  0  0  0  0
  -74.3950  -14.1480  -32.1060 C   0  0  2  0  0  0  0  0  0  0  0  0
  -73.8790  -15.1300  -31.0640 C   0  0  0  0  0  0  0  0  0  0  0  0
  -72.6900  -15.1430  -30.7490 O   0  0  0  0  0  0  0  0  0  0  0  0
  -74.1140  -14.6770  -33.5110 C   0  0  0  0  0  0  0  0  0  0  0  0
  -74.6930  -15.9560  -33.6930 O   0  0  0  0  0  0  0  0  0  0  0  0
  -74.7720  -15.9590  -30.5360 N   0  0  0  0  0  0  0  0  0  0  0  0
  -74.3720  -16.9630  -29.5600 C   0  0  2  0  0  0  0  0  0  0  0  0
  -73.9140  -18.2460  -30.2500 C   0  0  0  0  0  0  0  0  0  0  0  0
  -74.4250  -19.3340  -29.9870 O   0  0  0  0  0  0  0  0  0  0  0  0
  -75.5150  -17.2820  -28.5760 C   0  0  2  0  0  0  0  0  0  0  0  0
  -76.8600  -17.3280  -29.3100 C   0  0  0  0  0  0  0  0  0  0  0  0
  -75.5390  -16.2590  -27.4260 C   0  0  0  0  0  0  0  0  0  0  0  0
  -77.9700  -17.8570  -28.4650 C   0  0  0  0  0  0  0  0  0  0  0  0
  -72.9340  -18.1010  -31.1330 N   0  0  0  0  0  0  0  0  0  0  0  0
  -72.3170  -19.2300  -31.8130 C   0  0  2  0  0  0  0  0  0  0  0  0
  -70.8160  -19.0090  -31.8390 C   0  0  0  0  0  0  0  0  0  0  0  0
  -70.3590  -17.8920  -32.0730 O   0  0  0  0  0  0  0  0  0  0  0  0
  -72.8550  -19.3980  -33.2470 C   0  0  0  0  0  0  0  0  0  0  0  0
  -72.1140  -20.5040  -33.9830 C   0  0  0  0  0  0  0  0  0  0  0  0
  -74.3490  -19.6730  -33.2260 C   0  0  0  0  0  0  0  0  0  0  0  0
  -70.0550  -20.0640  -31.5770 N   0  0  0  0  0  0  0  0  0  0  0  0
  -68.6160  -19.9440  -31.4540 C   0  0  0  0  0  0  0  0  0  0  0  0
  -67.9730  -19.3620  -32.6960 C   0  0  0  0  0  0  0  0  0  0  0  0
  -68.3590  -19.6770  -33.8230 O   0  0  0  0  0  0  0  0  0  0  0  0
  -66.9790  -18.5100  -32.4850 N   0  0  0  0  0  0  0  0  0  0  0  0
  -66.2770  -17.8720  -33.5890 C   0  0  2  0  0  0  0  0  0  0  0  0
  -64.8610  -18.4080  -33.7370 C   0  0  0  0  0  0  0  0  0  0  0  0
  -64.0840  -18.4260  -32.7820 O   0  0  0  0  0  0  0  0  0  0  0  0
  -66.2410  -16.3450  -33.4210 C   0  0  2  0  0  0  0  0  0  0  0  0
  -65.5830  -16.0090  -32.1940 O   0  0  0  0  0  0  0  0  0  0  0  0
  -67.6550  -15.7960  -33.4010 C   0  0  0  0  0  0  0  0  0  0  0  0
  -64.5400  -18.8390  -34.9510 N   0  0  0  0  0  0  0  0  0  0  0  0
  -63.2900  -19.5260  -35.2330 C   0  0  2  0  0  0  0  0  0  0  0  0
  -62.1270  -18.5430  -35.3010 C   0  0  0  0  0  0  0  0  0  0  0  0
  -62.3030  -17.3790  -35.6610 O   0  0  0  0  0  0  0  0  0  0  0  0
  -63.3940  -20.3030  -36.5510 C   0  0  0  0  0  0  0  0  0  0  0  0
  -64.5320  -21.3160  -36.7250 C   0  0  0  0  0  0  0  0  0  0  0  0
  -65.8010  -20.6570  -37.2670 C   0  0  0  0  0  0  0  0  0  0  0  0
  -64.0970  -22.4620  -37.6260 C   0  0  0  0  0  0  0  0  0  0  0  0
  -60.9370  -19.0220  -34.9560 N   0  0  0  0  0  0  0  0  0  0  0  0
  -59.7280  -18.2120  -35.0380 C   0  0  2  0  0  0  0  0  0  0  0  0
  -58.6650  -18.9340  -35.8570 C   0  0  0  0  0  0  0  0  0  0  0  0
  -58.4450  -20.1310  -35.6760 O   0  0  0  0  0  0  0  0  0  0  0  0
  -59.1870  -17.9050  -33.6380 C   0  0  0  0  0  0  0  0  0  0  0  0
  -59.2060  -16.4410  -33.2550 C   0  0  0  0  0  0  0  0  0  0  0  0
  -59.9710  -15.5230  -33.9630 C   0  0  0  0  0  0  0  0  0  0  0  0
  -58.4460  -15.9750  -32.1880 C   0  0  0  0  0  0  0  0  0  0  0  0
  -59.9850  -14.1840  -33.6120 C   0  0  0  0  0  0  0  0  0  0  0  0
  -58.4530  -14.6410  -31.8310 C   0  0  0  0  0  0  0  0  0  0  0  0
  -59.2240  -13.7500  -32.5460 C   0  0  0  0  0  0  0  0  0  0  0  0
  -59.2330  -12.4200  -32.1940 O   0  0  0  0  0  0  0  0  0  0  0  0
  -58.0020  -18.2030  -36.7650 N   0  0  0  0  0  0  0  0  0  0  0  0
  -56.9590  -18.7720  -37.6260 C   0  0  2  0  0  0  0  0  0  0  0  0
  -55.7120  -19.1740  -36.8430 C   0  0  0  0  0  0  0  0  0  0  0  0
  -55.5620  -20.3510  -36.5140 O   0  5  0  0  0  0  0  0  0  0  0  0
  -56.6510  -17.6320  -38.6020 C   0  0  0  0  0  0  0  0  0  0  0  0
  -57.0380  -16.3940  -37.8640 C   0  0  0  0  0  0  0  0  0  0  0  0
  -58.2360  -16.7770  -37.0510 C   0  0  0  0  0  0  0  0  0  0  0  0
  -73.1767   -8.7362  -32.7698 H   0  0  0  0  0  0  0  0  0  0  0  0
  -74.6332   -9.3432  -33.2381 H   0  0  0  0  0  0  0  0  0  0  0  0
  -73.2419  -10.0821  -33.7152 H   0  0  0  0  0  0  0  0  0  0  0  0
  -72.6918  -10.6791  -31.5081 H   0  0  0  0  0  0  0  0  0  0  0  0
  -75.2377   -9.1212  -30.9652 H   0  0  0  0  0  0  0  0  0  0  0  0
  -73.6070   -8.9164  -30.2403 H   0  0  0  0  0  0  0  0  0  0  0  0
  -72.7399  -10.9087  -28.8168 H   0  0  0  0  0  0  0  0  0  0  0  0
  -76.8433  -10.3250  -29.8188 H   0  0  0  0  0  0  0  0  0  0  0  0
  -73.4057  -12.3411  -26.9281 H   0  0  0  0  0  0  0  0  0  0  0  0
  -77.5105  -11.7526  -27.9323 H   0  0  0  0  0  0  0  0  0  0  0  0
  -75.7930  -12.7620  -26.4825 H   0  0  0  0  0  0  0  0  0  0  0  0
  -72.8140  -12.7747  -31.7239 H   0  0  0  0  0  0  0  0  0  0  0  0
  -75.4835  -14.0494  -31.9818 H   0  0  0  0  0  0  0  0  0  0  0  0
  -73.0263  -14.7496  -33.6579 H   0  0  0  0  0  0  0  0  0  0  0  0
  -74.5382  -13.9810  -34.2497 H   0  0  0  0  0  0  0  0  0  0  0  0
  -75.6331  -15.8972  -33.5701 H   0  0  0  0  0  0  0  0  0  0  0  0
  -75.7309  -15.8930  -30.8120 H   0  0  0  0  0  0  0  0  0  0  0  0
  -73.5259  -16.5588  -28.9849 H   0  0  0  0  0  0  0  0  0  0  0  0
  -75.3287  -18.2762  -28.1437 H   0  0  0  0  0  0  0  0  0  0  0  0
  -76.7545  -17.9741  -30.1940 H   0  0  0  0  0  0  0  0  0  0  0  0
  -77.1193  -16.3080  -29.6301 H   0  0  0  0  0  0  0  0  0  0  0  0
  -74.5614  -16.2513  -26.9217 H   0  0  0  0  0  0  0  0  0  0  0  0
  -76.3215  -16.5366  -26.7045 H   0  0  0  0  0  0  0  0  0  0  0  0
  -75.7511  -15.2581  -27.8300 H   0  0  0  0  0  0  0  0  0  0  0  0
  -78.9030  -17.8640  -29.0476 H   0  0  0  0  0  0  0  0  0  0  0  0
  -78.0951  -17.2155  -27.5803 H   0  0  0  0  0  0  0  0  0  0  0  0
  -77.7304  -18.8815  -28.1442 H   0  0  0  0  0  0  0  0  0  0  0  0
  -72.6064  -17.1790  -31.3394 H   0  0  0  0  0  0  0  0  0  0  0  0
  -72.5371  -20.1481  -31.2485 H   0  0  0  0  0  0  0  0  0  0  0  0
  -72.6868  -18.4554  -33.7884 H   0  0  0  0  0  0  0  0  0  0  0  0
  -72.5181  -20.6013  -35.0015 H   0  0  0  0  0  0  0  0  0  0  0  0
  -72.2446  -21.4542  -33.4445 H   0  0  0  0  0  0  0  0  0  0  0  0
  -71.0435  -20.2563  -34.0354 H   0  0  0  0  0  0  0  0  0  0  0  0
  -74.8636  -18.8620  -32.6898 H   0  0  0  0  0  0  0  0  0  0  0  0
  -74.5388  -20.6285  -32.7151 H   0  0  0  0  0  0  0  0  0  0  0  0
  -74.7264  -19.7275  -34.2578 H   0  0  0  0  0  0  0  0  0  0  0  0
  -70.4833  -20.9603  -31.4621 H   0  0  0  0  0  0  0  0  0  0  0  0
  -68.1930  -20.9432  -31.2733 H   0  0  0  0  0  0  0  0  0  0  0  0
  -68.3885  -19.2896  -30.5996 H   0  0  0  0  0  0  0  0  0  0  0  0
  -66.7055  -18.3011  -31.5461 H   0  0  0  0  0  0  0  0  0  0  0  0
  -66.8269  -18.1014  -34.5136 H   0  0  0  0  0  0  0  0  0  0  0  0
  -65.6902  -15.9005  -34.2631 H   0  0  0  0  0  0  0  0  0  0  0  0
  -66.0560  -16.3951  -31.4662 H   0  0  0  0  0  0  0  0  0  0  0  0
  -67.6223  -14.7031  -33.2806 H   0  0  0  0  0  0  0  0  0  0  0  0
  -68.2093  -16.2409  -32.5615 H   0  0  0  0  0  0  0  0  0  0  0  0
  -68.1587  -16.0457  -34.3464 H   0  0  0  0  0  0  0  0  0  0  0  0
  -65.1833  -18.6851  -35.7010 H   0  0  0  0  0  0  0  0  0  0  0  0
  -63.0955  -20.2399  -34.4191 H   0  0  0  0  0  0  0  0  0  0  0  0
  -62.4498  -20.8531  -36.6771 H   0  0  0  0  0  0  0  0  0  0  0  0
  -63.4963  -19.5608  -37.3564 H   0  0  0  0  0  0  0  0  0  0  0  0
  -64.7661  -21.7321  -35.7340 H   0  0  0  0  0  0  0  0  0  0  0  0
  -66.5899  -21.4156  -37.3767 H   0  0  0  0  0  0  0  0  0  0  0  0
  -65.5892  -20.2041  -38.2468 H   0  0  0  0  0  0  0  0  0  0  0  0
  -66.1368  -19.8773  -36.5675 H   0  0  0  0  0  0  0  0  0  0  0  0
  -63.1842  -22.9219  -37.2194 H   0  0  0  0  0  0  0  0  0  0  0  0
  -63.8950  -22.0775  -38.6366 H   0  0  0  0  0  0  0  0  0  0  0  0
  -64.8972  -23.2153  -37.6734 H   0  0  0  0  0  0  0  0  0  0  0  0
  -60.8687  -19.9652  -34.6308 H   0  0  0  0  0  0  0  0  0  0  0  0
  -59.9745  -17.2628  -35.5363 H   0  0  0  0  0  0  0  0  0  0  0  0
  -58.1462  -18.2576  -33.5888 H   0  0  0  0  0  0  0  0  0  0  0  0
  -59.7962  -18.4573  -32.9074 H   0  0  0  0  0  0  0  0  0  0  0  0
  -60.5664  -15.8604  -34.8036 H   0  0  0  0  0  0  0  0  0  0  0  0
  -57.8361  -16.6725  -31.6254 H   0  0  0  0  0  0  0  0  0  0  0  0
  -60.5905  -13.4803  -34.1716 H   0  0  0  0  0  0  0  0  0  0  0  0
  -57.8561  -14.2970  -30.9941 H   0  0  0  0  0  0  0  0  0  0  0  0
  -59.8089  -11.9425  -32.7795 H   0  0  0  0  0  0  0  0  0  0  0  0
  -57.3420  -19.6522  -38.1633 H   0  0  0  0  0  0  0  0  0  0  0  0
  -54.8461  -18.3114  -36.5368 O   0  0  0  0  0  0  0  0  0  0  0  0
  -57.2439  -17.7373  -39.5225 H   0  0  0  0  0  0  0  0  0  0  0  0
  -55.5807  -17.6152  -38.8551 H   0  0  0  0  0  0  0  0  0  0  0  0
  -57.2922  -15.5887  -38.5689 H   0  0  0  0  0  0  0  0  0  0  0  0
  -56.2180  -16.0633  -37.2096 H   0  0  0  0  0  0  0  0  0  0  0  0
  -58.2866  -16.1907  -36.1216 H   0  0  0  0  0  0  0  0  0  0  0  0
  -59.1641  -16.6361  -37.6244 H   0  0  0  0  0  0  0  0  0  0  0  0
  1  2  1  0  0  0  0
  1 71  1  0  0  0  0
  1 72  1  0  0  0  0
  1 73  1  0  0  0  0
  2  3  1  0  0  0  0
  2  5  1  0  0  0  0
  2 74  1  1  0  0  0
  3  4  2  0  0  0  0
  3 12  1  0  0  0  0
  5  6  1  0  0  0  0
  5 75  1  0  0  0  0
  5 76  1  0  0  0  0
  6  7  2  0  0  0  0
  6  8  1  0  0  0  0
  7  9  1  0  0  0  0
  7 77  1  0  0  0  0
  8 10  2  0  0  0  0
  8 78  1  0  0  0  0
  9 11  2  0  0  0  0
  9 79  1  0  0  0  0
 10 11  1  0  0  0  0
 10 80  1  0  0  0  0
 11 81  1  0  0  0  0
 12 13  1  0  0  0  0
 12 82  1  0  0  0  0
 13 14  1  0  0  0  0
 13 16  1  0  0  0  0
 13 83  1  1  0  0  0
 14 15  2  0  0  0  0
 14 18  1  0  0  0  0
 16 17  1  0  0  0  0
 16 84  1  0  0  0  0
 16 85  1  0  0  0  0
 17 86  1  0  0  0  0
 18 19  1  0  0  0  0
 18 87  1  0  0  0  0
 19 20  1  0  0  0  0
 19 22  1  0  0  0  0
 19 88  1  1  0  0  0
 20 21  2  0  0  0  0
 20 26  1  0  0  0  0
 22 23  1  0  0  0  0
 22 24  1  0  0  0  0
 22 89  1  1  0  0  0
 23 25  1  0  0  0  0
 23 90  1  0  0  0  0
 23 91  1  0  0  0  0
 24 92  1  0  0  0  0
 24 93  1  0  0  0  0
 24 94  1  0  0  0  0
 25 95  1  0  0  0  0
 25 96  1  0  0  0  0
 25 97  1  0  0  0  0
 26 27  1  0  0  0  0
 26 98  1  0  0  0  0
 27 28  1  0  0  0  0
 27 30  1  0  0  0  0
 27 99  1  1  0  0  0
 28 29  2  0  0  0  0
 28 33  1  0  0  0  0
 30 31  1  0  0  0  0
 30 32  1  0  0  0  0
 30100  1  0  0  0  0
 31101  1  0  0  0  0
 31102  1  0  0  0  0
 31103  1  0  0  0  0
 32104  1  0  0  0  0
 32105  1  0  0  0  0
 32106  1  0  0  0  0
 33 34  1  0  0  0  0
 33107  1  0  0  0  0
 34 35  1  0  0  0  0
 34108  1  0  0  0  0
 34109  1  0  0  0  0
 35 36  2  0  0  0  0
 35 37  1  0  0  0  0
 37 38  1  0  0  0  0
 37110  1  0  0  0  0
 38 39  1  0  0  0  0
 38 41  1  0  0  0  0
 38111  1  6  0  0  0
 39 40  2  0  0  0  0
 39 44  1  0  0  0  0
 41 42  1  0  0  0  0
 41 43  1  0  0  0  0
 41112  1  6  0  0  0
 42113  1  0  0  0  0
 43114  1  0  0  0  0
 43115  1  0  0  0  0
 43116  1  0  0  0  0
 44 45  1  0  0  0  0
 44117  1  0  0  0  0
 45 46  1  0  0  0  0
 45 48  1  0  0  0  0
 45118  1  1  0  0  0
 46 47  2  0  0  0  0
 46 52  1  0  0  0  0
 48 49  1  0  0  0  0
 48119  1  0  0  0  0
 48120  1  0  0  0  0
 49 50  1  0  0  0  0
 49 51  1  0  0  0  0
 49121  1  0  0  0  0
 50122  1  0  0  0  0
 50123  1  0  0  0  0
 50124  1  0  0  0  0
 51125  1  0  0  0  0
 51126  1  0  0  0  0
 51127  1  0  0  0  0
 52 53  1  0  0  0  0
 52128  1  0  0  0  0
 53 54  1  0  0  0  0
 53 56  1  0  0  0  0
 53129  1  6  0  0  0
 54 55  2  0  0  0  0
 54 64  1  0  0  0  0
 56 57  1  0  0  0  0
 56130  1  0  0  0  0
 56131  1  0  0  0  0
 57 58  2  0  0  0  0
 57 59  1  0  0  0  0
 58 60  1  0  0  0  0
 58132  1  0  0  0  0
 59 61  2  0  0  0  0
 59133  1  0  0  0  0
 60 62  2  0  0  0  0
 60134  1  0  0  0  0
 61 62  1  0  0  0  0
 61135  1  0  0  0  0
 62 63  1  0  0  0  0
 63136  1  0  0  0  0
 64 65  1  0  0  0  0
 64 70  1  0  0  0  0
 65 66  1  0  0  0  0
 65 68  1  0  0  0  0
 65137  1  6  0  0  0
 66 67  1  0  0  0  0
 66138  2  0  0  0  0
 68 69  1  0  0  0  0
 68139  1  0  0  0  0
 68140  1  0  0  0  0
 69 70  1  0  0  0  0
 69141  1  0  0  0  0
 69142  1  0  0  0  0
 70143  1  0  0  0  0
 70144  1  0  0  0  0
M  CHG  2   1   1  67  -1
M  END
