4tkf_ligand
 OpenBabel08222323353D

 50 55  0  0  1  0  0  0  0  0999 V2000
   19.7260   33.1860   -0.3080 C   0  0  0  0  0  0  0  0  0  0  0  0
   20.5320   34.3290   -0.2050 C   0  0  0  0  0  0  0  0  0  0  0  0
   16.8290   36.8990    1.3750 C   0  0  0  0  0  0  0  0  0  0  0  0
   20.4790   40.4550    0.6680 C   0  0  0  0  0  0  0  0  0  0  0  0
   24.4190   43.9250   -0.8090 C   0  0  0  0  0  0  0  0  0  0  0  0
   25.2070   42.8410   -0.8260 C   0  0  0  0  0  0  0  0  0  0  0  0
   21.6210   41.2450    0.6720 C   0  0  0  0  0  0  0  0  0  0  0  0
   18.3740   33.2530    0.0350 C   0  0  0  0  0  0  0  0  0  0  0  0
   18.7980   38.9770    1.8590 C   0  0  0  0  0  0  0  0  0  0  0  0
   16.5120   34.5730    0.8410 C   0  0  0  0  0  0  0  0  0  0  0  0
   26.4430   44.5600    0.1650 C   0  0  0  0  0  0  0  0  0  0  0  0
   22.3060   41.4730    1.8570 C   0  0  0  0  0  0  0  0  0  0  0  0
   19.9920   39.9380    1.8580 C   0  0  0  0  0  0  0  0  0  0  0  0
   26.2740   43.0500    0.2670 C   0  0  1  0  0  0  0  0  0  0  0  0
   24.9660   44.8590    0.3010 C   0  0  2  0  0  0  0  0  0  0  0  0
   18.6990   35.5950    0.5540 C   0  0  0  0  0  0  0  0  0  0  0  0
   17.8540   34.4740    0.4700 C   0  0  0  0  0  0  0  0  0  0  0  0
   24.6540   41.8200    1.7800 C   0  0  0  0  0  0  0  0  0  0  0  0
   18.1830   36.8120    1.0250 C   0  0  0  0  0  0  0  0  0  0  0  0
   20.0110   35.4830    0.2200 N   0  0  0  0  0  0  0  0  0  0  0  0
   15.9920   35.7950    1.2850 C   0  0  0  0  0  0  0  0  0  0  0  0
   19.0150   37.8580    1.1520 N   0  0  0  0  0  0  0  0  0  0  0  0
   17.7900   39.2220    2.5050 O   0  0  0  0  0  0  0  0  0  0  0  0
   20.6630   40.1890    3.0430 C   0  0  0  0  0  0  0  0  0  0  0  0
   21.8260   40.9490    3.0480 C   0  0  0  0  0  0  0  0  0  0  0  0
   23.3850   42.2580    1.8340 N   0  0  0  0  0  0  0  0  0  0  0  0
   23.3160   43.5900    1.7760 C   0  0  0  0  0  0  0  0  0  0  0  0
   22.2620   44.2360    1.7850 O   0  0  0  0  0  0  0  0  0  0  0  0
   24.7140   44.2140    1.6840 C   0  0  1  0  0  0  0  0  0  0  0  0
   25.6350   42.9840    1.6740 C   0  0  2  0  0  0  0  0  0  0  0  0
   25.0090   40.6410    1.7940 O   0  0  0  0  0  0  0  0  0  0  0  0
   20.1522   32.2511   -0.6536 H   0  0  0  0  0  0  0  0  0  0  0  0
   21.5814   34.2757   -0.4712 H   0  0  0  0  0  0  0  0  0  0  0  0
   16.4282   37.8445    1.7220 H   0  0  0  0  0  0  0  0  0  0  0  0
   19.9691   40.2430   -0.2648 H   0  0  0  0  0  0  0  0  0  0  0  0
   23.5599   44.1134   -1.4512 H   0  0  0  0  0  0  0  0  0  0  0  0
   25.1119   41.9790   -1.4847 H   0  0  0  0  0  0  0  0  0  0  0  0
   21.9780   41.6844   -0.2524 H   0  0  0  0  0  0  0  0  0  0  0  0
   17.7413   32.3756   -0.0349 H   0  0  0  0  0  0  0  0  0  0  0  0
   15.8703   33.7011    0.7852 H   0  0  0  0  0  0  0  0  0  0  0  0
   26.8601   44.8821   -0.8005 H   0  0  0  0  0  0  0  0  0  0  0  0
   27.0446   44.9820    0.9835 H   0  0  0  0  0  0  0  0  0  0  0  0
   27.1779   42.4352    0.1448 H   0  0  0  0  0  0  0  0  0  0  0  0
   24.6564   45.9111    0.2159 H   0  0  0  0  0  0  0  0  0  0  0  0
   14.9457   35.8782    1.5559 H   0  0  0  0  0  0  0  0  0  0  0  0
   19.8883   37.7964    0.6687 H   0  0  0  0  0  0  0  0  0  0  0  0
   20.2778   39.7893    3.9741 H   0  0  0  0  0  0  0  0  0  0  0  0
   22.3547   41.1312    3.9766 H   0  0  0  0  0  0  0  0  0  0  0  0
   24.9117   44.9140    2.5091 H   0  0  0  0  0  0  0  0  0  0  0  0
   26.3859   42.9753    2.4778 H   0  0  0  0  0  0  0  0  0  0  0  0
  1 32  1  0  0  0  0
  2  1  2  0  0  0  0
  2 33  1  0  0  0  0
  3 21  1  0  0  0  0
  3 34  1  0  0  0  0
  4  7  2  0  0  0  0
  4 35  1  0  0  0  0
  5 36  1  0  0  0  0
  6  5  2  0  0  0  0
  6 37  1  0  0  0  0
  7 12  1  0  0  0  0
  7 38  1  0  0  0  0
  8  1  1  0  0  0  0
  8 39  1  0  0  0  0
  9 13  1  0  0  0  0
  9 23  2  0  0  0  0
 10 40  1  0  0  0  0
 11 15  1  0  0  0  0
 11 41  1  0  0  0  0
 11 42  1  0  0  0  0
 12 25  2  0  0  0  0
 12 26  1  0  0  0  0
 13  4  1  0  0  0  0
 13 24  2  0  0  0  0
 14  6  1  0  0  0  0
 14 11  1  0  0  0  0
 14 43  1  6  0  0  0
 15  5  1  0  0  0  0
 15 29  1  0  0  0  0
 15 44  1  6  0  0  0
 16 17  1  0  0  0  0
 16 20  2  0  0  0  0
 17  8  2  0  0  0  0
 17 10  1  0  0  0  0
 18 30  1  0  0  0  0
 18 31  2  0  0  0  0
 19  3  2  0  0  0  0
 19 16  1  0  0  0  0
 19 22  1  0  0  0  0
 20  2  1  0  0  0  0
 21 10  2  0  0  0  0
 21 45  1  0  0  0  0
 22  9  1  0  0  0  0
 22 46  1  0  0  0  0
 24 25  1  0  0  0  0
 24 47  1  0  0  0  0
 25 48  1  0  0  0  0
 26 18  1  0  0  0  0
 26 27  1  0  0  0  0
 27 28  2  0  0  0  0
 27 29  1  0  0  0  0
 29 30  1  0  0  0  0
 29 49  1  1  0  0  0
 30 14  1  0  0  0  0
 30 50  1  1  0  0  0
M  END
