4tkn_ligand
 OpenBabel08222323353D

153155  0  0  1  0  0  0  0  0999 V2000
   25.6600   23.0290    7.8730 N   0  3  0  0  0  0  0  0  0  0  0  0
   25.4460   23.9910    6.8020 C   0  0  2  0  0  0  0  0  0  0  0  0
   24.3240   24.9580    7.1620 C   0  0  0  0  0  0  0  0  0  0  0  0
   24.5390   25.9550    7.8550 O   0  0  0  0  0  0  0  0  0  0  0  0
   25.0910   23.2790    5.4770 C   0  0  2  0  0  0  0  0  0  0  0  0
   23.7890   22.6810    5.5760 O   0  0  0  0  0  0  0  0  0  0  0  0
   26.1120   22.1980    5.1720 C   0  0  0  0  0  0  0  0  0  0  0  0
   23.1250   24.6480    6.6800 N   0  0  0  0  0  0  0  0  0  0  0  0
   21.9370   25.4570    6.9110 C   0  0  2  0  0  0  0  0  0  0  0  0
   21.4000   25.3110    8.3340 C   0  0  0  0  0  0  0  0  0  0  0  0
   21.1080   24.2050    8.7850 O   0  0  0  0  0  0  0  0  0  0  0  0
   20.8620   25.0480    5.9140 C   0  0  0  0  0  0  0  0  0  0  0  0
   20.5720   23.2630    5.8650 S   0  0  0  0  0  0  0  0  0  0  0  0
   21.2700   26.4330    9.0360 N   0  0  0  0  0  0  0  0  0  0  0  0
   20.8160   26.4200   10.4250 C   0  0  2  0  0  0  0  0  0  0  0  0
   19.3170   26.1260   10.5360 C   0  0  0  0  0  0  0  0  0  0  0  0
   18.5000   26.7970    9.9170 O   0  0  0  0  0  0  0  0  0  0  0  0
   21.1760   27.7340   11.1680 C   0  0  2  0  0  0  0  0  0  0  0  0
   20.5350   28.9470   10.4860 C   0  0  0  0  0  0  0  0  0  0  0  0
   22.6780   27.9250   11.1970 C   0  0  0  0  0  0  0  0  0  0  0  0
   19.3160   29.4780   11.2020 C   0  0  0  0  0  0  0  0  0  0  0  0
   18.9590   25.1310   11.3380 N   0  0  0  0  0  0  0  0  0  0  0  0
   17.5610   24.7270   11.4270 C   0  0  2  0  0  0  0  0  0  0  0  0
   16.7360   25.7400   12.2030 C   0  0  0  0  0  0  0  0  0  0  0  0
   17.1880   26.2920   13.2060 O   0  0  0  0  0  0  0  0  0  0  0  0
   17.4210   23.3450   12.0570 C   0  0  0  0  0  0  0  0  0  0  0  0
   15.9870   22.8740   12.1920 C   0  0  0  0  0  0  0  0  0  0  0  0
   15.3190   22.2980   11.1200 C   0  0  0  0  0  0  0  0  0  0  0  0
   15.2980   23.0160   13.3870 C   0  0  0  0  0  0  0  0  0  0  0  0
   14.0100   21.8630   11.2420 C   0  0  0  0  0  0  0  0  0  0  0  0
   13.9890   22.5870   13.5140 C   0  0  0  0  0  0  0  0  0  0  0  0
   13.3520   22.0130   12.4430 C   0  0  0  0  0  0  0  0  0  0  0  0
   12.0520   21.5900   12.5810 O   0  0  0  0  0  0  0  0  0  0  0  0
   15.5150   25.9650   11.7360 N   0  0  0  0  0  0  0  0  0  0  0  0
   14.6200   26.9340   12.3470 C   0  0  2  0  0  0  0  0  0  0  0  0
   13.8150   26.2430   13.4320 C   0  0  0  0  0  0  0  0  0  0  0  0
   12.9730   25.4020   13.1410 O   0  0  0  0  0  0  0  0  0  0  0  0
   13.6930   27.5200   11.2880 C   0  0  0  0  0  0  0  0  0  0  0  0
   12.7470   28.5600   11.8420 C   0  0  0  0  0  0  0  0  0  0  0  0
   12.7090   28.8100   13.0460 O   0  0  0  0  0  0  0  0  0  0  0  0
   11.9640   29.1650   10.9610 N   0  0  0  0  0  0  0  0  0  0  0  0
   14.0700   26.6090   14.6950 N   0  0  0  0  0  0  0  0  0  0  0  0
   13.4300   25.9450   15.8350 C   0  0  2  0  0  0  0  0  0  0  0  0
   11.9090   26.0590   15.8530 C   0  0  0  0  0  0  0  0  0  0  0  0
   11.2480   25.2080   16.4480 O   0  0  0  0  0  0  0  0  0  0  0  0
   14.0270   26.6790   17.0450 C   0  0  0  0  0  0  0  0  0  0  0  0
   14.4880   27.9870   16.5130 C   0  0  0  0  0  0  0  0  0  0  0  0
   14.9340   27.7230   15.1130 C   0  0  0  0  0  0  0  0  0  0  0  0
   11.3640   27.0840   15.2070 N   0  0  0  0  0  0  0  0  0  0  0  0
    9.9200   27.3000   15.2020 C   0  0  2  0  0  0  0  0  0  0  0  0
    9.2060   26.6170   14.0500 C   0  0  0  0  0  0  0  0  0  0  0  0
    7.9760   26.6160   13.9910 O   0  0  0  0  0  0  0  0  0  0  0  0
    9.6260   28.7880   15.1570 C   0  0  0  0  0  0  0  0  0  0  0  0
    9.9040   29.4120   16.5140 C   0  0  0  0  0  0  0  0  0  0  0  0
    9.9980   30.9100   16.3840 C   0  0  0  0  0  0  0  0  0  0  0  0
    8.8210   29.0070   17.5040 C   0  0  0  0  0  0  0  0  0  0  0  0
    9.9810   26.0500   13.1350 N   0  0  0  0  0  0  0  0  0  0  0  0
    9.4340   25.4380   11.9320 C   0  0  2  0  0  0  0  0  0  0  0  0
    8.3270   24.4240   12.1930 C   0  0  0  0  0  0  0  0  0  0  0  0
    8.4220   23.5970   13.0990 O   0  0  0  0  0  0  0  0  0  0  0  0
   10.5400   24.7680   11.1200 C   0  0  0  0  0  0  0  0  0  0  0  0
   10.0310   24.0240    9.9250 C   0  0  0  0  0  0  0  0  0  0  0  0
    9.5070   24.7040    8.8420 C   0  0  0  0  0  0  0  0  0  0  0  0
   10.0510   22.6450    9.8940 C   0  0  0  0  0  0  0  0  0  0  0  0
    9.0320   24.0180    7.7420 C   0  0  0  0  0  0  0  0  0  0  0  0
    9.5730   21.9570    8.7970 C   0  0  0  0  0  0  0  0  0  0  0  0
    9.0640   22.6420    7.7230 C   0  0  0  0  0  0  0  0  0  0  0  0
    7.2750   24.5050   11.3860 N   0  0  0  0  0  0  0  0  0  0  0  0
    6.1440   23.6070   11.4870 C   0  0  0  0  0  0  0  0  0  0  0  0
    5.0970   24.0290   12.4920 C   0  0  0  0  0  0  0  0  0  0  0  0
    4.1140   23.3190   12.6960 O   0  0  0  0  0  0  0  0  0  0  0  0
    5.2940   25.1890   13.1080 N   0  0  0  0  0  0  0  0  0  0  0  0
    4.3290   25.7090   14.0700 C   0  0  2  0  0  0  0  0  0  0  0  0
    4.6080   27.1650   14.4000 C   0  0  0  0  0  0  0  0  0  0  0  0
    4.8340   27.5060   15.5600 O   0  5  0  0  0  0  0  0  0  0  0  0
    4.3550   24.8810   15.3550 C   0  0  0  0  0  0  0  0  0  0  0  0
    5.6780   24.7530   15.8430 O   0  0  0  0  0  0  0  0  0  0  0  0
   25.8895   23.5187    8.7236 H   0  0  0  0  0  0  0  0  0  0  0  0
   26.4184   22.4131    7.6249 H   0  0  0  0  0  0  0  0  0  0  0  0
   24.8204   22.4889    8.0123 H   0  0  0  0  0  0  0  0  0  0  0  0
   26.3746   24.5627    6.6581 H   0  0  0  0  0  0  0  0  0  0  0  0
   25.0906   24.0172    4.6615 H   0  0  0  0  0  0  0  0  0  0  0  0
   23.1442   23.3562    5.7517 H   0  0  0  0  0  0  0  0  0  0  0  0
   25.8476   21.6999    4.2275 H   0  0  0  0  0  0  0  0  0  0  0  0
   26.1183   21.4591    5.9869 H   0  0  0  0  0  0  0  0  0  0  0  0
   27.1100   22.6515    5.0805 H   0  0  0  0  0  0  0  0  0  0  0  0
   23.0343   23.8171    6.1310 H   0  0  0  0  0  0  0  0  0  0  0  0
   22.1966   26.5131    6.7458 H   0  0  0  0  0  0  0  0  0  0  0  0
   21.1716   25.3789    4.9117 H   0  0  0  0  0  0  0  0  0  0  0  0
   19.9215   25.5468    6.1906 H   0  0  0  0  0  0  0  0  0  0  0  0
   21.4241   22.7924    5.6032 H   0  0  0  0  0  0  0  0  0  0  0  0
   21.4884   27.3074    8.6026 H   0  0  0  0  0  0  0  0  0  0  0  0
   21.3486   25.6014   10.9312 H   0  0  0  0  0  0  0  0  0  0  0  0
   20.8024   27.6673   12.2005 H   0  0  0  0  0  0  0  0  0  0  0  0
   20.2388   28.6554    9.4675 H   0  0  0  0  0  0  0  0  0  0  0  0
   21.2838   29.7511   10.4341 H   0  0  0  0  0  0  0  0  0  0  0  0
   23.1484   27.0587   11.6851 H   0  0  0  0  0  0  0  0  0  0  0  0
   22.9206   28.8389   11.7590 H   0  0  0  0  0  0  0  0  0  0  0  0
   23.0560   28.0160   10.1680 H   0  0  0  0  0  0  0  0  0  0  0  0
   18.9164   30.3434   10.6531 H   0  0  0  0  0  0  0  0  0  0  0  0
   19.5943   29.7866   12.2205 H   0  0  0  0  0  0  0  0  0  0  0  0
   18.5494   28.6909   11.2539 H   0  0  0  0  0  0  0  0  0  0  0  0
   19.6504   24.6568   11.8830 H   0  0  0  0  0  0  0  0  0  0  0  0
   17.1613   24.6762   10.4035 H   0  0  0  0  0  0  0  0  0  0  0  0
   17.8717   23.3743   13.0600 H   0  0  0  0  0  0  0  0  0  0  0  0
   17.9654   22.6224   11.4313 H   0  0  0  0  0  0  0  0  0  0  0  0
   15.8309   22.1868   10.1710 H   0  0  0  0  0  0  0  0  0  0  0  0
   15.7939   23.4712   14.2367 H   0  0  0  0  0  0  0  0  0  0  0  0
   13.5060   21.4071   10.3975 H   0  0  0  0  0  0  0  0  0  0  0  0
   13.4679   22.7041   14.4573 H   0  0  0  0  0  0  0  0  0  0  0  0
   11.7524   21.2178   11.7599 H   0  0  0  0  0  0  0  0  0  0  0  0
   15.2000   25.4515   10.9378 H   0  0  0  0  0  0  0  0  0  0  0  0
   15.2118   27.7456   12.7955 H   0  0  0  0  0  0  0  0  0  0  0  0
   13.0994   26.7035   10.8511 H   0  0  0  0  0  0  0  0  0  0  0  0
   14.3072   27.9870   10.5040 H   0  0  0  0  0  0  0  0  0  0  0  0
   11.3157   29.8632   11.2647 H   0  0  0  0  0  0  0  0  0  0  0  0
   12.0213   28.9234    9.9923 H   0  0  0  0  0  0  0  0  0  0  0  0
   13.7025   24.8794   15.8503 H   0  0  0  0  0  0  0  0  0  0  0  0
   14.8721   26.1121   17.4625 H   0  0  0  0  0  0  0  0  0  0  0  0
   13.2636   26.8257   17.8233 H   0  0  0  0  0  0  0  0  0  0  0  0
   15.3242   28.3720   17.1151 H   0  0  0  0  0  0  0  0  0  0  0  0
   13.6640   28.7157   16.5214 H   0  0  0  0  0  0  0  0  0  0  0  0
   14.7776   28.6055   14.4753 H   0  0  0  0  0  0  0  0  0  0  0  0
   15.9947   27.4330   15.0841 H   0  0  0  0  0  0  0  0  0  0  0  0
   11.9556   27.7215   14.7134 H   0  0  0  0  0  0  0  0  0  0  0  0
    9.5164   26.8900   16.1395 H   0  0  0  0  0  0  0  0  0  0  0  0
    8.5692   28.9431   14.8940 H   0  0  0  0  0  0  0  0  0  0  0  0
   10.2660   29.2634   14.3991 H   0  0  0  0  0  0  0  0  0  0  0  0
   10.8693   29.0352   16.8831 H   0  0  0  0  0  0  0  0  0  0  0  0
   10.1993   31.3518   17.3711 H   0  0  0  0  0  0  0  0  0  0  0  0
    9.0487   31.3044   15.9925 H   0  0  0  0  0  0  0  0  0  0  0  0
   10.8147   31.1676   15.6936 H   0  0  0  0  0  0  0  0  0  0  0  0
    8.7800   27.9100   17.5741 H   0  0  0  0  0  0  0  0  0  0  0  0
    7.8485   29.3890   17.1602 H   0  0  0  0  0  0  0  0  0  0  0  0
    9.0519   29.4292   18.4931 H   0  0  0  0  0  0  0  0  0  0  0  0
   10.9711   26.0425   13.2755 H   0  0  0  0  0  0  0  0  0  0  0  0
    9.0035   26.2471   11.3237 H   0  0  0  0  0  0  0  0  0  0  0  0
   11.0711   24.0590   11.7722 H   0  0  0  0  0  0  0  0  0  0  0  0
   11.2393   25.5442   10.7759 H   0  0  0  0  0  0  0  0  0  0  0  0
    9.4685   25.7872    8.8563 H   0  0  0  0  0  0  0  0  0  0  0  0
   10.4465   22.0956   10.7406 H   0  0  0  0  0  0  0  0  0  0  0  0
    8.6340   24.5628    6.8936 H   0  0  0  0  0  0  0  0  0  0  0  0
    9.5999   20.8734    8.7842 H   0  0  0  0  0  0  0  0  0  0  0  0
    8.6881   22.1013    6.8619 H   0  0  0  0  0  0  0  0  0  0  0  0
    7.2639   25.2141   10.6810 H   0  0  0  0  0  0  0  0  0  0  0  0
    6.5183   22.6142   11.7771 H   0  0  0  0  0  0  0  0  0  0  0  0
    5.6657   23.5441   10.4984 H   0  0  0  0  0  0  0  0  0  0  0  0
    6.1200   25.7161   12.9083 H   0  0  0  0  0  0  0  0  0  0  0  0
    3.3253   25.6378   13.6255 H   0  0  0  0  0  0  0  0  0  0  0  0
    4.6080   28.0274   13.4814 O   0  0  0  0  0  0  0  0  0  0  0  0
    3.9486   23.8801   15.1476 H   0  0  0  0  0  0  0  0  0  0  0  0
    3.7360   25.3775   16.1168 H   0  0  0  0  0  0  0  0  0  0  0  0
    6.0316   25.6155   16.0263 H   0  0  0  0  0  0  0  0  0  0  0  0
  1  2  1  0  0  0  0
  1 78  1  0  0  0  0
  1 79  1  0  0  0  0
  1 80  1  0  0  0  0
  2  3  1  0  0  0  0
  2  5  1  0  0  0  0
  2 81  1  6  0  0  0
  3  4  2  0  0  0  0
  3  8  1  0  0  0  0
  5  6  1  0  0  0  0
  5  7  1  0  0  0  0
  5 82  1  6  0  0  0
  6 83  1  0  0  0  0
  7 84  1  0  0  0  0
  7 85  1  0  0  0  0
  7 86  1  0  0  0  0
  8  9  1  0  0  0  0
  8 87  1  0  0  0  0
  9 10  1  0  0  0  0
  9 12  1  0  0  0  0
  9 88  1  6  0  0  0
 10 11  2  0  0  0  0
 10 14  1  0  0  0  0
 12 13  1  0  0  0  0
 12 89  1  0  0  0  0
 12 90  1  0  0  0  0
 13 91  1  0  0  0  0
 14 15  1  0  0  0  0
 14 92  1  0  0  0  0
 15 16  1  0  0  0  0
 15 18  1  0  0  0  0
 15 93  1  1  0  0  0
 16 17  2  0  0  0  0
 16 22  1  0  0  0  0
 18 19  1  0  0  0  0
 18 20  1  0  0  0  0
 18 94  1  1  0  0  0
 19 21  1  0  0  0  0
 19 95  1  0  0  0  0
 19 96  1  0  0  0  0
 20 97  1  0  0  0  0
 20 98  1  0  0  0  0
 20 99  1  0  0  0  0
 21100  1  0  0  0  0
 21101  1  0  0  0  0
 21102  1  0  0  0  0
 22 23  1  0  0  0  0
 22103  1  0  0  0  0
 23 24  1  0  0  0  0
 23 26  1  0  0  0  0
 23104  1  6  0  0  0
 24 25  2  0  0  0  0
 24 34  1  0  0  0  0
 26 27  1  0  0  0  0
 26105  1  0  0  0  0
 26106  1  0  0  0  0
 27 28  2  0  0  0  0
 27 29  1  0  0  0  0
 28 30  1  0  0  0  0
 28107  1  0  0  0  0
 29 31  2  0  0  0  0
 29108  1  0  0  0  0
 30 32  2  0  0  0  0
 30109  1  0  0  0  0
 31 32  1  0  0  0  0
 31110  1  0  0  0  0
 32 33  1  0  0  0  0
 33111  1  0  0  0  0
 34 35  1  0  0  0  0
 34112  1  0  0  0  0
 35 36  1  0  0  0  0
 35 38  1  0  0  0  0
 35113  1  1  0  0  0
 36 37  2  0  0  0  0
 36 42  1  0  0  0  0
 38 39  1  0  0  0  0
 38114  1  0  0  0  0
 38115  1  0  0  0  0
 39 40  2  0  0  0  0
 39 41  1  0  0  0  0
 41116  1  0  0  0  0
 41117  1  0  0  0  0
 42 43  1  0  0  0  0
 42 48  1  0  0  0  0
 43 44  1  0  0  0  0
 43 46  1  0  0  0  0
 43118  1  1  0  0  0
 44 45  2  0  0  0  0
 44 49  1  0  0  0  0
 46 47  1  0  0  0  0
 46119  1  0  0  0  0
 46120  1  0  0  0  0
 47 48  1  0  0  0  0
 47121  1  0  0  0  0
 47122  1  0  0  0  0
 48123  1  0  0  0  0
 48124  1  0  0  0  0
 49 50  1  0  0  0  0
 49125  1  0  0  0  0
 50 51  1  0  0  0  0
 50 53  1  0  0  0  0
 50126  1  1  0  0  0
 51 52  2  0  0  0  0
 51 57  1  0  0  0  0
 53 54  1  0  0  0  0
 53127  1  0  0  0  0
 53128  1  0  0  0  0
 54 55  1  0  0  0  0
 54 56  1  0  0  0  0
 54129  1  0  0  0  0
 55130  1  0  0  0  0
 55131  1  0  0  0  0
 55132  1  0  0  0  0
 56133  1  0  0  0  0
 56134  1  0  0  0  0
 56135  1  0  0  0  0
 57 58  1  0  0  0  0
 57136  1  0  0  0  0
 58 59  1  0  0  0  0
 58 61  1  0  0  0  0
 58137  1  6  0  0  0
 59 60  2  0  0  0  0
 59 68  1  0  0  0  0
 61 62  1  0  0  0  0
 61138  1  0  0  0  0
 61139  1  0  0  0  0
 62 63  2  0  0  0  0
 62 64  1  0  0  0  0
 63 65  1  0  0  0  0
 63140  1  0  0  0  0
 64 66  2  0  0  0  0
 64141  1  0  0  0  0
 65 67  2  0  0  0  0
 65142  1  0  0  0  0
 66 67  1  0  0  0  0
 66143  1  0  0  0  0
 67144  1  0  0  0  0
 68 69  1  0  0  0  0
 68145  1  0  0  0  0
 69 70  1  0  0  0  0
 69146  1  0  0  0  0
 69147  1  0  0  0  0
 70 71  2  0  0  0  0
 70 72  1  0  0  0  0
 72 73  1  0  0  0  0
 72148  1  0  0  0  0
 73 74  1  0  0  0  0
 73 76  1  0  0  0  0
 73149  1  6  0  0  0
 74 75  1  0  0  0  0
 74150  2  0  0  0  0
 76 77  1  0  0  0  0
 76151  1  0  0  0  0
 76152  1  0  0  0  0
 77153  1  0  0  0  0
M  CHG  2   1   1  75  -1
M  END
