4tky_ligand
 OpenBabel08222323353D

 95 96  0  0  1  0  0  0  0  0999 V2000
  -11.5080  -16.6020  -31.2810 N   0  3  0  0  0  0  0  0  0  0  0  0
  -10.8370  -16.6840  -29.9770 C   0  0  2  0  0  0  0  0  0  0  0  0
   -9.4060  -17.2130  -30.0630 C   0  0  0  0  0  0  0  0  0  0  0  0
   -8.6910  -17.1930  -29.0690 O   0  0  0  0  0  0  0  0  0  0  0  0
  -11.7180  -17.6640  -29.1960 C   0  0  0  0  0  0  0  0  0  0  0  0
  -12.3750  -18.4960  -30.2500 C   0  0  0  0  0  0  0  0  0  0  0  0
  -12.6010  -17.5820  -31.4110 C   0  0  0  0  0  0  0  0  0  0  0  0
   -8.9960  -17.6460  -31.2500 N   0  0  0  0  0  0  0  0  0  0  0  0
   -7.6640  -18.1940  -31.4700 C   0  0  2  0  0  0  0  0  0  0  0  0
   -6.8530  -17.3550  -32.4450 C   0  0  0  0  0  0  0  0  0  0  0  0
   -5.7130  -17.6970  -32.7670 O   0  0  0  0  0  0  0  0  0  0  0  0
   -7.7600  -19.6300  -31.9800 C   0  0  0  0  0  0  0  0  0  0  0  0
   -8.7890  -19.8170  -33.0430 C   0  0  0  0  0  0  0  0  0  0  0  0
   -8.4960  -19.5340  -34.3650 C   0  0  0  0  0  0  0  0  0  0  0  0
  -10.0590  -20.2580  -32.7180 C   0  0  0  0  0  0  0  0  0  0  0  0
   -9.4470  -19.6980  -35.3480 C   0  0  0  0  0  0  0  0  0  0  0  0
  -11.0180  -20.4230  -33.6970 C   0  0  0  0  0  0  0  0  0  0  0  0
  -10.7100  -20.1380  -35.0130 C   0  0  0  0  0  0  0  0  0  0  0  0
   -7.4550  -16.2790  -32.9420 N   0  0  0  0  0  0  0  0  0  0  0  0
   -6.8070  -15.4280  -33.9350 C   0  0  2  0  0  0  0  0  0  0  0  0
   -5.5800  -14.7120  -33.3590 C   0  0  0  0  0  0  0  0  0  0  0  0
   -5.4750  -14.5110  -32.1500 O   0  0  0  0  0  0  0  0  0  0  0  0
   -7.8060  -14.4130  -34.4860 C   0  0  0  0  0  0  0  0  0  0  0  0
   -4.6420  -14.3660  -34.2380 N   0  0  0  0  0  0  0  0  0  0  0  0
   -3.4200  -13.6630  -33.8510 C   0  0  2  0  0  0  0  0  0  0  0  0
   -3.0400  -12.5600  -34.8250 C   0  0  0  0  0  0  0  0  0  0  0  0
   -3.4390  -12.5740  -35.9880 O   0  0  0  0  0  0  0  0  0  0  0  0
   -2.2050  -14.6130  -33.7650 C   0  0  2  0  0  0  0  0  0  0  0  0
   -2.0470  -15.3010  -35.0130 O   0  0  0  0  0  0  0  0  0  0  0  0
   -2.3470  -15.6160  -32.6110 C   0  0  0  0  0  0  0  0  0  0  0  0
   -2.2670  -11.5960  -34.3400 N   0  0  0  0  0  0  0  0  0  0  0  0
   -1.5890  -10.6690  -35.2330 C   0  0  2  0  0  0  0  0  0  0  0  0
   -0.2060  -11.2510  -35.5030 C   0  0  0  0  0  0  0  0  0  0  0  0
    0.6000  -11.4110  -34.5830 O   0  0  0  0  0  0  0  0  0  0  0  0
   -1.4880   -9.2740  -34.6210 C   0  0  0  0  0  0  0  0  0  0  0  0
   -3.0530   -8.6310  -33.9660 S   0  0  0  0  0  0  0  0  0  0  0  0
    0.0590  -11.5850  -36.7610 N   0  0  0  0  0  0  0  0  0  0  0  0
    1.2910  -12.2670  -37.1300 C   0  0  2  0  0  0  0  0  0  0  0  0
    2.2550  -11.2700  -37.7340 C   0  0  0  0  0  0  0  0  0  0  0  0
    1.8310  -10.2770  -38.3260 O   0  0  0  0  0  0  0  0  0  0  0  0
    1.0230  -13.4020  -38.1180 C   0  0  0  0  0  0  0  0  0  0  0  0
    0.1050  -14.4580  -37.5520 C   0  0  0  0  0  0  0  0  0  0  0  0
   -0.0130  -14.5330  -36.3150 O   0  5  0  0  0  0  0  0  0  0  0  0
   -0.5050  -15.2070  -38.3430 O   0  0  0  0  0  0  0  0  0  0  0  0
    3.5490  -11.5310  -37.5890 N   0  0  0  0  0  0  0  0  0  0  0  0
    4.5530  -10.6250  -38.1310 C   0  0  2  0  0  0  0  0  0  0  0  0
    4.7690  -10.8770  -39.6250 C   0  0  0  0  0  0  0  0  0  0  0  0
    5.5710  -10.1980  -40.2760 O   0  5  0  0  0  0  0  0  0  0  0  0
    5.8690  -10.7660  -37.3680 C   0  0  0  0  0  0  0  0  0  0  0  0
    6.3080  -12.1130  -37.3600 O   0  0  0  0  0  0  0  0  0  0  0  0
    4.1470  -11.7660  -40.2170 O   0  0  0  0  0  0  0  0  0  0  0  0
  -10.8295  -16.7753  -32.0060 H   0  0  0  0  0  0  0  0  0  0  0  0
  -11.8889  -15.6753  -31.3918 H   0  0  0  0  0  0  0  0  0  0  0  0
  -10.8229  -15.6964  -29.4928 H   0  0  0  0  0  0  0  0  0  0  0  0
  -12.4698  -17.1233  -28.6024 H   0  0  0  0  0  0  0  0  0  0  0  0
  -11.1068  -18.2910  -28.5302 H   0  0  0  0  0  0  0  0  0  0  0  0
  -13.3332  -18.8922  -29.8828 H   0  0  0  0  0  0  0  0  0  0  0  0
  -11.7207  -19.3307  -30.5418 H   0  0  0  0  0  0  0  0  0  0  0  0
  -12.5308  -18.1282  -32.3632 H   0  0  0  0  0  0  0  0  0  0  0  0
  -13.5826  -17.0905  -31.3416 H   0  0  0  0  0  0  0  0  0  0  0  0
   -9.6271  -17.5937  -32.0239 H   0  0  0  0  0  0  0  0  0  0  0  0
   -7.1362  -18.2018  -30.5050 H   0  0  0  0  0  0  0  0  0  0  0  0
   -8.0124  -20.2842  -31.1325 H   0  0  0  0  0  0  0  0  0  0  0  0
   -6.7809  -19.9204  -32.3886 H   0  0  0  0  0  0  0  0  0  0  0  0
   -7.5067  -19.1791  -34.6304 H   0  0  0  0  0  0  0  0  0  0  0  0
  -10.3035  -20.4761  -31.6847 H   0  0  0  0  0  0  0  0  0  0  0  0
   -9.2031  -19.4818  -36.3818 H   0  0  0  0  0  0  0  0  0  0  0  0
  -12.0090  -20.7749  -33.4341 H   0  0  0  0  0  0  0  0  0  0  0  0
  -11.4625  -20.2605  -35.7836 H   0  0  0  0  0  0  0  0  0  0  0  0
   -8.3754  -16.0467  -32.6274 H   0  0  0  0  0  0  0  0  0  0  0  0
   -6.4695  -16.0672  -34.7642 H   0  0  0  0  0  0  0  0  0  0  0  0
   -7.3083  -13.7770  -35.2329 H   0  0  0  0  0  0  0  0  0  0  0  0
   -8.1834  -13.7867  -33.6643 H   0  0  0  0  0  0  0  0  0  0  0  0
   -8.6458  -14.9441  -34.9579 H   0  0  0  0  0  0  0  0  0  0  0  0
   -4.7787  -14.5962  -35.2015 H   0  0  0  0  0  0  0  0  0  0  0  0
   -3.5923  -13.2156  -32.8610 H   0  0  0  0  0  0  0  0  0  0  0  0
   -1.3050  -14.0075  -33.5827 H   0  0  0  0  0  0  0  0  0  0  0  0
   -1.9060  -14.6677  -35.7068 H   0  0  0  0  0  0  0  0  0  0  0  0
   -1.4642  -16.2718  -32.5845 H   0  0  0  0  0  0  0  0  0  0  0  0
   -3.2510  -16.2240  -32.7628 H   0  0  0  0  0  0  0  0  0  0  0  0
   -2.4274  -15.0707  -31.6590 H   0  0  0  0  0  0  0  0  0  0  0  0
   -2.1495  -11.5061  -33.3510 H   0  0  0  0  0  0  0  0  0  0  0  0
   -2.1478  -10.5969  -36.1778 H   0  0  0  0  0  0  0  0  0  0  0  0
   -1.1294   -8.5823  -35.3975 H   0  0  0  0  0  0  0  0  0  0  0  0
   -0.7593   -9.3108  -33.7978 H   0  0  0  0  0  0  0  0  0  0  0  0
   -3.3918   -9.2468  -33.2435 H   0  0  0  0  0  0  0  0  0  0  0  0
   -0.6058  -11.3619  -37.4739 H   0  0  0  0  0  0  0  0  0  0  0  0
    1.7423  -12.6937  -36.2221 H   0  0  0  0  0  0  0  0  0  0  0  0
    1.9813  -13.8729  -38.3823 H   0  0  0  0  0  0  0  0  0  0  0  0
    0.5599  -12.9803  -39.0222 H   0  0  0  0  0  0  0  0  0  0  0  0
    3.8368  -12.3566  -37.1036 H   0  0  0  0  0  0  0  0  0  0  0  0
    4.1897   -9.5944  -38.0053 H   0  0  0  0  0  0  0  0  0  0  0  0
    5.7219  -10.4292  -36.3312 H   0  0  0  0  0  0  0  0  0  0  0  0
    6.6342  -10.1409  -37.8515 H   0  0  0  0  0  0  0  0  0  0  0  0
    5.6516  -12.6563  -36.9401 H   0  0  0  0  0  0  0  0  0  0  0  0
  1  2  1  0  0  0  0
  1  7  1  0  0  0  0
  1 52  1  0  0  0  0
  1 53  1  0  0  0  0
  2  3  1  0  0  0  0
  2  5  1  0  0  0  0
  2 54  1  1  0  0  0
  3  4  2  0  0  0  0
  3  8  1  0  0  0  0
  5  6  1  0  0  0  0
  5 55  1  0  0  0  0
  5 56  1  0  0  0  0
  6  7  1  0  0  0  0
  6 57  1  0  0  0  0
  6 58  1  0  0  0  0
  7 59  1  0  0  0  0
  7 60  1  0  0  0  0
  8  9  1  0  0  0  0
  8 61  1  0  0  0  0
  9 10  1  0  0  0  0
  9 12  1  0  0  0  0
  9 62  1  1  0  0  0
 10 11  2  0  0  0  0
 10 19  1  0  0  0  0
 12 13  1  0  0  0  0
 12 63  1  0  0  0  0
 12 64  1  0  0  0  0
 13 14  2  0  0  0  0
 13 15  1  0  0  0  0
 14 16  1  0  0  0  0
 14 65  1  0  0  0  0
 15 17  2  0  0  0  0
 15 66  1  0  0  0  0
 16 18  2  0  0  0  0
 16 67  1  0  0  0  0
 17 18  1  0  0  0  0
 17 68  1  0  0  0  0
 18 69  1  0  0  0  0
 19 20  1  0  0  0  0
 19 70  1  0  0  0  0
 20 21  1  0  0  0  0
 20 23  1  0  0  0  0
 20 71  1  6  0  0  0
 21 22  2  0  0  0  0
 21 24  1  0  0  0  0
 23 72  1  0  0  0  0
 23 73  1  0  0  0  0
 23 74  1  0  0  0  0
 24 25  1  0  0  0  0
 24 75  1  0  0  0  0
 25 26  1  0  0  0  0
 25 28  1  0  0  0  0
 25 76  1  1  0  0  0
 26 27  2  0  0  0  0
 26 31  1  0  0  0  0
 28 29  1  0  0  0  0
 28 30  1  0  0  0  0
 28 77  1  1  0  0  0
 29 78  1  0  0  0  0
 30 79  1  0  0  0  0
 30 80  1  0  0  0  0
 30 81  1  0  0  0  0
 31 32  1  0  0  0  0
 31 82  1  0  0  0  0
 32 33  1  0  0  0  0
 32 35  1  0  0  0  0
 32 83  1  6  0  0  0
 33 34  2  0  0  0  0
 33 37  1  0  0  0  0
 35 36  1  0  0  0  0
 35 84  1  0  0  0  0
 35 85  1  0  0  0  0
 36 86  1  0  0  0  0
 37 38  1  0  0  0  0
 37 87  1  0  0  0  0
 38 39  1  0  0  0  0
 38 41  1  0  0  0  0
 38 88  1  1  0  0  0
 39 40  2  0  0  0  0
 39 45  1  0  0  0  0
 41 42  1  0  0  0  0
 41 89  1  0  0  0  0
 41 90  1  0  0  0  0
 42 43  1  0  0  0  0
 42 44  2  0  0  0  0
 45 46  1  0  0  0  0
 45 91  1  0  0  0  0
 46 47  1  0  0  0  0
 46 49  1  0  0  0  0
 46 92  1  1  0  0  0
 47 48  1  0  0  0  0
 47 51  2  0  0  0  0
 49 50  1  0  0  0  0
 49 93  1  0  0  0  0
 49 94  1  0  0  0  0
 50 95  1  0  0  0  0
M  CHG  3   1   1  43  -1  48  -1
M  END
