4tlr_ligand
 OpenBabel08222323353D

 63 65  0  0  1  0  0  0  0  0999 V2000
    6.3900   30.1020    1.6690 C   0  0  0  0  0  0  0  0  0  0  0  0
    6.5360   32.4480    1.2380 C   0  0  0  0  0  0  0  0  0  0  0  0
    7.3870   33.7600    1.1410 C   0  0  2  0  0  0  0  0  0  0  0  0
    8.6730   33.6150    1.7890 O   0  0  0  0  0  0  0  0  0  0  0  0
    5.3110   32.4880    1.0170 O   0  0  0  0  0  0  0  0  0  0  0  0
    6.7070   27.9390   -1.3280 O   0  5  0  0  0  0  0  0  0  0  0  0
    8.3570   31.6680    4.4120 C   0  0  0  0  0  0  0  0  0  0  0  0
    6.6740   35.0250    1.6890 C   0  0  0  0  0  0  0  0  0  0  0  0
    5.5220   29.9100    2.7870 C   0  0  0  0  0  0  0  0  0  0  0  0
    4.8340   28.7430    2.6260 C   0  0  0  0  0  0  0  0  0  0  0  0
    6.2890   29.1380    0.6820 C   0  0  0  0  0  0  0  0  0  0  0  0
    6.9390   28.9150   -0.6220 C   0  0  0  0  0  0  0  0  0  0  0  0
    3.8950   28.2470    3.5350 C   0  0  0  0  0  0  0  0  0  0  0  0
    3.0620   27.8020    4.2880 C   0  0  0  0  0  0  0  0  0  0  0  0
    2.0610   27.3020    5.2370 C   0  0  0  0  0  0  0  0  0  0  0  0
    2.4440   25.8770    5.6960 C   0  0  0  0  0  0  0  0  0  0  0  0
    2.0740   28.2690    6.4320 C   0  0  0  0  0  0  0  0  0  0  0  0
    0.6750   27.3010    4.5640 C   0  0  0  0  0  0  0  0  0  0  0  0
    6.2060   34.9510    3.1420 C   0  0  1  0  0  0  0  0  0  0  0  0
    7.2890   35.3340    4.1650 C   0  0  0  0  0  0  0  0  0  0  0  0
    7.1730   31.2870    1.5770 N   0  0  0  0  0  0  0  0  0  0  0  0
    9.4010   32.4590    1.3720 C   0  0  0  0  0  0  0  0  0  0  0  0
    8.6560   31.1700    1.8270 C   0  0  1  0  0  0  0  0  0  0  0  0
    8.9490   30.7410    3.3030 C   0  0  0  0  0  0  0  0  0  0  0  0
   10.4550   30.4200    3.6040 C   0  0  0  0  0  0  0  0  0  0  0  0
   10.6630   29.8210    5.0230 C   0  0  0  0  0  0  0  0  0  0  0  0
   10.0180   30.7100    6.1270 C   0  0  0  0  0  0  0  0  0  0  0  0
    8.5330   31.0650    5.8270 C   0  0  0  0  0  0  0  0  0  0  0  0
    5.1550   27.8910    1.1630 S   0  0  0  0  0  0  0  0  0  0  0  0
    7.8100   29.8960   -0.9880 O   0  0  0  0  0  0  0  0  0  0  0  0
    5.0950   35.8080    3.2920 O   0  0  0  0  0  0  0  0  0  0  0  0
    7.5734   33.9340    0.0710 H   0  0  0  0  0  0  0  0  0  0  0  0
    7.2838   31.8124    4.2186 H   0  0  0  0  0  0  0  0  0  0  0  0
    8.8706   32.6400    4.3739 H   0  0  0  0  0  0  0  0  0  0  0  0
    5.7915   35.2136    1.0600 H   0  0  0  0  0  0  0  0  0  0  0  0
    7.3731   35.8699    1.6028 H   0  0  0  0  0  0  0  0  0  0  0  0
    5.4248   30.5878    3.6338 H   0  0  0  0  0  0  0  0  0  0  0  0
    1.6912   25.5061    6.4071 H   0  0  0  0  0  0  0  0  0  0  0  0
    3.4292   25.9015    6.1847 H   0  0  0  0  0  0  0  0  0  0  0  0
    2.4842   25.2090    4.8230 H   0  0  0  0  0  0  0  0  0  0  0  0
    1.7998   29.2779    6.0902 H   0  0  0  0  0  0  0  0  0  0  0  0
    3.0812   28.2926    6.8736 H   0  0  0  0  0  0  0  0  0  0  0  0
    1.3503   27.9284    7.1872 H   0  0  0  0  0  0  0  0  0  0  0  0
    0.6816   26.6053    3.7120 H   0  0  0  0  0  0  0  0  0  0  0  0
    0.4396   28.3147    4.2077 H   0  0  0  0  0  0  0  0  0  0  0  0
   -0.0858   26.9822    5.2917 H   0  0  0  0  0  0  0  0  0  0  0  0
    5.8934   33.9171    3.3499 H   0  0  0  0  0  0  0  0  0  0  0  0
    6.8768   35.2561    5.1819 H   0  0  0  0  0  0  0  0  0  0  0  0
    7.6182   36.3673    3.9810 H   0  0  0  0  0  0  0  0  0  0  0  0
    8.1464   34.6524    4.0638 H   0  0  0  0  0  0  0  0  0  0  0  0
   10.4045   32.4781    1.8220 H   0  0  0  0  0  0  0  0  0  0  0  0
    9.4907   32.4604    0.2757 H   0  0  0  0  0  0  0  0  0  0  0  0
    9.0271   30.3550    1.1882 H   0  0  0  0  0  0  0  0  0  0  0  0
    8.4194   29.7837    3.4174 H   0  0  0  0  0  0  0  0  0  0  0  0
   11.0368   31.3502    3.5249 H   0  0  0  0  0  0  0  0  0  0  0  0
   10.8174   29.6964    2.8590 H   0  0  0  0  0  0  0  0  0  0  0  0
   11.7421   29.7369    5.2192 H   0  0  0  0  0  0  0  0  0  0  0  0
   10.2049   28.8216    5.0581 H   0  0  0  0  0  0  0  0  0  0  0  0
   10.5932   31.6443    6.2060 H   0  0  0  0  0  0  0  0  0  0  0  0
   10.0633   30.1695    7.0840 H   0  0  0  0  0  0  0  0  0  0  0  0
    7.9269   30.1501    5.9014 H   0  0  0  0  0  0  0  0  0  0  0  0
    8.1853   31.7968    6.5710 H   0  0  0  0  0  0  0  0  0  0  0  0
    4.4263   35.5713    2.6601 H   0  0  0  0  0  0  0  0  0  0  0  0
  1  9  1  0  0  0  0
  1 11  2  0  0  0  0
  2  3  1  0  0  0  0
  2  5  2  0  0  0  0
  3  8  1  0  0  0  0
  3 32  1  6  0  0  0
  4  3  1  0  0  0  0
  7 28  1  0  0  0  0
  7 33  1  0  0  0  0
  7 34  1  0  0  0  0
  8 19  1  0  0  0  0
  8 35  1  0  0  0  0
  8 36  1  0  0  0  0
  9 10  2  0  0  0  0
  9 37  1  0  0  0  0
 10 13  1  0  0  0  0
 11 12  1  0  0  0  0
 11 29  1  0  0  0  0
 12  6  1  0  0  0  0
 12 30  2  0  0  0  0
 13 14  3  0  0  0  0
 14 15  1  0  0  0  0
 15 16  1  0  0  0  0
 15 17  1  0  0  0  0
 15 18  1  0  0  0  0
 16 38  1  0  0  0  0
 16 39  1  0  0  0  0
 16 40  1  0  0  0  0
 17 41  1  0  0  0  0
 17 42  1  0  0  0  0
 17 43  1  0  0  0  0
 18 44  1  0  0  0  0
 18 45  1  0  0  0  0
 18 46  1  0  0  0  0
 19 20  1  0  0  0  0
 19 31  1  0  0  0  0
 19 47  1  1  0  0  0
 20 48  1  0  0  0  0
 20 49  1  0  0  0  0
 20 50  1  0  0  0  0
 21  1  1  0  0  0  0
 21  2  1  0  0  0  0
 22  4  1  0  0  0  0
 22 51  1  0  0  0  0
 22 52  1  0  0  0  0
 23 21  1  0  0  0  0
 23 22  1  0  0  0  0
 23 24  1  0  0  0  0
 23 53  1  6  0  0  0
 24  7  1  0  0  0  0
 24 25  1  0  0  0  0
 24 54  1  0  0  0  0
 25 26  1  0  0  0  0
 25 55  1  0  0  0  0
 25 56  1  0  0  0  0
 26 27  1  0  0  0  0
 26 57  1  0  0  0  0
 26 58  1  0  0  0  0
 27 28  1  0  0  0  0
 27 59  1  0  0  0  0
 27 60  1  0  0  0  0
 28 61  1  0  0  0  0
 28 62  1  0  0  0  0
 29 10  1  0  0  0  0
 31 63  1  0  0  0  0
M  CHG  1   6  -1
M  END
