4tmf_ligand
 OpenBabel08222323353D

 54 56  0  0  1  0  0  0  0  0999 V2000
    6.4510   -4.6980    2.9280 C   0  0  0  0  0  0  0  0  0  0  0  0
    4.7720   -3.2710    2.0240 C   0  0  0  0  0  0  0  0  0  0  0  0
    4.1260   -5.0760    3.3030 C   0  0  0  0  0  0  0  0  0  0  0  0
    0.0230    4.0120   -0.6210 O   0  0  0  0  0  0  0  0  0  0  0  0
    0.7130    3.1060    0.3060 C   0  0  1  0  0  0  0  0  0  0  0  0
    0.6140    1.6890   -0.1600 C   0  0  1  0  0  0  0  0  0  0  0  0
   -0.3980    1.6060   -1.1430 O   0  0  0  0  0  0  0  0  0  0  0  0
    1.9710    1.4350   -0.8420 C   0  0  1  0  0  0  0  0  0  0  0  0
    1.7430    1.4680   -2.1990 O   0  0  0  0  0  0  0  0  0  0  0  0
    2.8120    2.5710   -0.6600 O   0  0  0  0  0  0  0  0  0  0  0  0
    2.2580    3.3560    0.3910 C   0  0  2  0  0  0  0  0  0  0  0  0
    2.7940    2.8610    1.7300 C   0  0  0  0  0  0  0  0  0  0  0  0
    4.2420    2.9840    1.6590 O   0  0  0  0  0  0  0  0  0  0  0  0
    5.1510    4.0580    2.5290 P   0  0  2  0  0  0  0  0  0  0  0  0
    4.9060    3.7880    4.1950 O   0  0  0  0  0  1  0  0  0  0  0  0
    4.8910    5.4490    2.0360 O   0  0  0  0  0  0  0  0  0  0  0  0
    6.6950    3.5430    2.3000 O   0  0  0  0  0  0  0  0  0  0  0  0
    7.2720    2.6310    3.5010 P   0  0  2  0  0  0  0  0  0  0  0  0
    7.9160    3.6570    4.4540 O   0  0  0  0  0  1  0  0  0  0  0  0
    8.2890    1.6830    2.9740 O   0  0  0  0  0  0  0  0  0  0  0  0
    5.9120    1.9240    4.2810 O   0  0  0  0  0  0  0  0  0  0  0  0
    5.6610    0.5290    4.0530 C   0  0  0  0  0  0  0  0  0  0  0  0
    4.9940    0.3570    2.6780 C   0  0  0  0  0  0  0  0  0  0  0  0
    5.9210   -0.4270    1.6850 C   0  0  0  0  0  0  0  0  0  0  0  0
    5.1340   -1.2910    0.6520 C   0  0  0  0  0  0  0  0  0  0  0  0
    4.2300   -2.2900    1.3440 N   0  0  0  0  0  0  0  0  0  0  0  0
    6.0750   -3.5860    2.1750 N   0  0  0  0  0  0  0  0  0  0  0  0
    5.4960   -5.4260    3.4760 N   0  0  0  0  0  0  0  0  0  0  0  0
    3.2770   -5.7770    3.8280 O   0  0  0  0  0  0  0  0  0  0  0  0
    3.7860   -4.0060    2.5770 C   0  0  0  0  0  0  0  0  0  0  0  0
    2.5970   -3.4730    2.2440 N   0  0  0  0  0  0  0  0  0  0  0  0
    2.9060   -2.4080    1.4960 C   0  0  0  0  0  0  0  0  0  0  0  0
    2.0180   -1.5790    0.9590 N   0  0  0  0  0  0  0  0  0  0  0  0
    7.5003   -4.9577    3.0598 H   0  0  0  0  0  0  0  0  0  0  0  0
    0.4194    3.9446   -1.4817 H   0  0  0  0  0  0  0  0  0  0  0  0
    0.2603    3.2156    1.3025 H   0  0  0  0  0  0  0  0  0  0  0  0
    0.4253    0.9903    0.6684 H   0  0  0  0  0  0  0  0  0  0  0  0
   -1.2260    1.8817   -0.7676 H   0  0  0  0  0  0  0  0  0  0  0  0
    2.4352    0.4990   -0.4979 H   0  0  0  0  0  0  0  0  0  0  0  0
    1.3198    2.2872   -2.4281 H   0  0  0  0  0  0  0  0  0  0  0  0
    2.4943    4.4221    0.2586 H   0  0  0  0  0  0  0  0  0  0  0  0
    2.5081    1.8110    1.8904 H   0  0  0  0  0  0  0  0  0  0  0  0
    2.3989    3.4781    2.5504 H   0  0  0  0  0  0  0  0  0  0  0  0
    4.9940    0.1416    4.8372 H   0  0  0  0  0  0  0  0  0  0  0  0
    6.6113   -0.0246    4.0734 H   0  0  0  0  0  0  0  0  0  0  0  0
    4.7792    1.3506    2.2578 H   0  0  0  0  0  0  0  0  0  0  0  0
    4.0533   -0.1991    2.8038 H   0  0  0  0  0  0  0  0  0  0  0  0
    6.5743   -1.0917    2.2693 H   0  0  0  0  0  0  0  0  0  0  0  0
    6.5358    0.3002    1.1344 H   0  0  0  0  0  0  0  0  0  0  0  0
    5.8512   -1.8350    0.0198 H   0  0  0  0  0  0  0  0  0  0  0  0
    4.5207   -0.6281    0.0240 H   0  0  0  0  0  0  0  0  0  0  0  0
    6.7973   -3.0011    1.7310 H   0  0  0  0  0  0  0  0  0  0  0  0
    1.0114   -1.7295    1.1173 H   0  0  0  0  0  0  0  0  0  0  0  0
    2.3359   -0.7856    0.3842 H   0  0  0  0  0  0  0  0  0  0  0  0
  1 28  2  0  0  0  0
  1 34  1  0  0  0  0
  2 27  1  0  0  0  0
  2 30  2  0  0  0  0
  3 28  1  0  0  0  0
  3 29  2  0  0  0  0
  4 35  1  0  0  0  0
  5  4  1  0  0  0  0
  5  6  1  0  0  0  0
  5 36  1  1  0  0  0
  6  7  1  0  0  0  0
  6 37  1  1  0  0  0
  7 38  1  0  0  0  0
  8  6  1  0  0  0  0
  8  9  1  0  0  0  0
  8 39  1  1  0  0  0
  9 40  1  0  0  0  0
 10  8  1  0  0  0  0
 11  5  1  0  0  0  0
 11 10  1  0  0  0  0
 11 41  1  6  0  0  0
 12 11  1  0  0  0  0
 12 42  1  0  0  0  0
 12 43  1  0  0  0  0
 13 12  1  0  0  0  0
 14 13  1  0  0  0  0
 14 15  1  1  0  0  0
 14 16  2  0  0  0  0
 17 14  1  0  0  0  0
 18 17  1  0  0  0  0
 18 19  1  1  0  0  0
 18 20  2  0  0  0  0
 21 18  1  0  0  0  0
 22 21  1  0  0  0  0
 22 44  1  0  0  0  0
 22 45  1  0  0  0  0
 23 22  1  0  0  0  0
 23 46  1  0  0  0  0
 23 47  1  0  0  0  0
 24 23  1  0  0  0  0
 24 48  1  0  0  0  0
 24 49  1  0  0  0  0
 25 24  1  0  0  0  0
 25 26  1  0  0  0  0
 25 50  1  0  0  0  0
 25 51  1  0  0  0  0
 26  2  1  0  0  0  0
 26 32  1  0  0  0  0
 27  1  1  0  0  0  0
 27 52  1  0  0  0  0
 30  3  1  0  0  0  0
 30 31  1  0  0  0  0
 31 32  2  0  0  0  0
 32 33  1  0  0  0  0
 33 53  1  0  0  0  0
 33 54  1  0  0  0  0
M  END
