4tn2_ligand
 OpenBabel08222323353D

 48 51  0  0  1  0  0  0  0  0999 V2000
   35.0430  -72.4480  -12.7390 C   0  0  0  0  0  0  0  0  0  0  0  0
   34.0300  -71.4180  -12.3830 C   0  0  0  0  0  0  0  0  0  0  0  0
   32.7110  -69.6740  -11.0610 C   0  0  0  0  0  0  0  0  0  0  0  0
   35.9690  -72.6960  -11.7760 O   0  5  0  0  0  0  0  0  0  0  0  0
   35.0880  -72.9910  -13.8460 O   0  0  0  0  0  0  0  0  0  0  0  0
   30.6070  -71.8620  -14.5320 O   0  0  0  0  0  0  0  0  0  0  0  0
   35.0280  -68.6520  -16.4390 C   0  0  0  0  0  0  0  0  0  0  0  0
   35.4710  -67.1880  -16.3790 C   0  0  0  0  0  0  0  0  0  0  0  0
   34.3100  -66.2610  -16.7870 C   0  0  0  0  0  0  0  0  0  0  0  0
   33.1340  -66.3940  -15.8160 C   0  0  0  0  0  0  0  0  0  0  0  0
   32.6940  -67.8550  -15.6450 C   0  0  0  0  0  0  0  0  0  0  0  0
   32.1730  -68.7330  -10.0780 C   0  0  0  0  0  0  0  0  0  0  0  0
   32.5620  -68.7380   -8.7120 C   0  0  0  0  0  0  0  0  0  0  0  0
   32.0030  -67.8220   -7.7920 C   0  0  0  0  0  0  0  0  0  0  0  0
   31.0790  -66.8450   -8.2380 C   0  0  0  0  0  0  0  0  0  0  0  0
   30.6910  -66.7960   -9.5970 C   0  0  0  0  0  0  0  0  0  0  0  0
   31.2530  -67.7240  -10.5070 C   0  0  0  0  0  0  0  0  0  0  0  0
   34.0090  -70.8000  -10.7290 S   0  0  0  0  0  0  0  0  0  0  0  0
   32.3120  -69.7970  -12.3570 C   0  0  0  0  0  0  0  0  0  0  0  0
   33.0460  -70.7650  -13.1080 C   0  0  0  0  0  0  0  0  0  0  0  0
   32.6820  -70.9550  -14.4860 N   0  0  0  0  0  0  0  0  0  0  0  0
   31.7520  -71.7610  -14.9640 C   0  0  0  0  0  0  0  0  0  0  0  0
   32.3180  -72.3870  -16.2310 C   0  0  0  0  0  0  0  0  0  0  0  0
   33.4740  -71.4320  -16.5920 C   0  0  0  0  0  0  0  0  0  0  0  0
   33.0870  -70.2470  -15.6990 C   0  0  2  0  0  0  0  0  0  0  0  0
   33.8300  -68.9090  -15.4890 C   0  0  0  0  0  0  0  0  0  0  0  0
   35.8689  -69.2949  -16.1396 H   0  0  0  0  0  0  0  0  0  0  0  0
   34.7289  -68.8955  -17.4692 H   0  0  0  0  0  0  0  0  0  0  0  0
   36.3157  -67.0359  -17.0670 H   0  0  0  0  0  0  0  0  0  0  0  0
   35.7854  -66.9457  -15.3531 H   0  0  0  0  0  0  0  0  0  0  0  0
   33.9731  -66.5305  -17.7989 H   0  0  0  0  0  0  0  0  0  0  0  0
   34.6632  -65.2193  -16.7834 H   0  0  0  0  0  0  0  0  0  0  0  0
   32.2857  -65.8103  -16.2030 H   0  0  0  0  0  0  0  0  0  0  0  0
   33.4357  -65.9966  -14.8357 H   0  0  0  0  0  0  0  0  0  0  0  0
   32.1010  -68.1312  -16.5294 H   0  0  0  0  0  0  0  0  0  0  0  0
   32.0610  -67.9105  -14.7471 H   0  0  0  0  0  0  0  0  0  0  0  0
   33.2990  -69.4554   -8.3697 H   0  0  0  0  0  0  0  0  0  0  0  0
   32.2813  -67.8670   -6.7453 H   0  0  0  0  0  0  0  0  0  0  0  0
   30.6672  -66.1312   -7.5337 H   0  0  0  0  0  0  0  0  0  0  0  0
   29.9733  -66.0583   -9.9374 H   0  0  0  0  0  0  0  0  0  0  0  0
   30.9797  -67.6688  -11.5545 H   0  0  0  0  0  0  0  0  0  0  0  0
   31.5022  -69.2075  -12.7845 H   0  0  0  0  0  0  0  0  0  0  0  0
   31.5632  -72.4164  -17.0306 H   0  0  0  0  0  0  0  0  0  0  0  0
   32.6891  -73.4046  -16.0394 H   0  0  0  0  0  0  0  0  0  0  0  0
   33.4708  -71.1639  -17.6588 H   0  0  0  0  0  0  0  0  0  0  0  0
   34.4550  -71.8499  -16.3219 H   0  0  0  0  0  0  0  0  0  0  0  0
   32.1555  -69.8839  -16.1576 H   0  0  0  0  0  0  0  0  0  0  0  0
   34.2219  -68.8762  -14.4617 H   0  0  0  0  0  0  0  0  0  0  0  0
  1  4  1  0  0  0  0
  1  5  2  0  0  0  0
  2  1  1  0  0  0  0
  2 18  1  0  0  0  0
  3 12  1  0  0  0  0
  3 18  1  0  0  0  0
  7  8  1  0  0  0  0
  7 27  1  0  0  0  0
  7 28  1  0  0  0  0
  8  9  1  0  0  0  0
  8 29  1  0  0  0  0
  8 30  1  0  0  0  0
  9 31  1  0  0  0  0
  9 32  1  0  0  0  0
 10  9  1  0  0  0  0
 10 33  1  0  0  0  0
 10 34  1  0  0  0  0
 11 10  1  0  0  0  0
 11 35  1  0  0  0  0
 11 36  1  0  0  0  0
 12 13  2  0  0  0  0
 12 17  1  0  0  0  0
 13 14  1  0  0  0  0
 13 37  1  0  0  0  0
 14 15  2  0  0  0  0
 14 38  1  0  0  0  0
 15 39  1  0  0  0  0
 16 15  1  0  0  0  0
 16 40  1  0  0  0  0
 17 16  2  0  0  0  0
 17 41  1  0  0  0  0
 19  3  2  0  0  0  0
 19 42  1  0  0  0  0
 20  2  2  0  0  0  0
 20 19  1  0  0  0  0
 21 20  1  0  0  0  0
 21 22  1  0  0  0  0
 22  6  2  0  0  0  0
 23 22  1  0  0  0  0
 23 43  1  0  0  0  0
 23 44  1  0  0  0  0
 24 23  1  0  0  0  0
 24 45  1  0  0  0  0
 24 46  1  0  0  0  0
 25 21  1  0  0  0  0
 25 24  1  0  0  0  0
 25 26  1  0  0  0  0
 25 47  1  6  0  0  0
 26  7  1  0  0  0  0
 26 11  1  0  0  0  0
 26 48  1  0  0  0  0
M  CHG  1   4  -1
M  END
