4tnw_ligand
 OpenBabel08222323353D

 53 52  0  0  1  0  0  0  0  0999 V2000
  -52.9820  -14.9140   29.8170 N   0  3  0  0  0  0  0  0  0  0  0  0
  -49.3710  -14.3420   33.0790 P   0  0  1  0  0  0  0  0  0  0  0  0
  -47.2420  -15.4650   31.9850 C   0  0  0  0  0  0  0  0  0  0  0  0
  -45.9260  -16.1510   32.3490 C   0  0  2  0  0  0  0  0  0  0  0  0
  -45.2990  -16.7270   31.0850 C   0  0  0  0  0  0  0  0  0  0  0  0
  -51.6760  -14.8250   31.8910 C   0  0  0  0  0  0  0  0  0  0  0  0
  -48.0560  -15.2730   33.1410 O   0  0  0  0  0  0  0  0  0  0  0  0
  -52.2940  -15.7270   30.8280 C   0  0  0  0  0  0  0  0  0  0  0  0
  -50.2880  -15.1270   32.0140 O   0  0  0  0  0  0  0  0  0  0  0  0
  -52.0670  -13.9000   29.2720 C   0  0  0  0  0  0  0  0  0  0  0  0
  -50.0700  -14.4120   34.4160 O   0  0  0  0  0  1  0  0  0  0  0  0
  -53.4470  -15.7830   28.7260 C   0  0  0  0  0  0  0  0  0  0  0  0
  -48.9950  -12.9970   32.5080 O   0  0  0  0  0  0  0  0  0  0  0  0
  -54.1300  -14.2520   30.4450 C   0  0  0  0  0  0  0  0  0  0  0  0
  -45.4160  -16.9880   34.5240 C   0  0  0  0  0  0  0  0  0  0  0  0
  -46.1190  -17.2220   33.2720 O   0  0  0  0  0  0  0  0  0  0  0  0
  -44.2020  -17.8120   34.8810 C   0  0  0  0  0  0  0  0  0  0  0  0
  -45.8280  -16.1380   35.2940 O   0  0  0  0  0  0  0  0  0  0  0  0
  -43.2720  -16.9710   35.7480 C   0  0  0  0  0  0  0  0  0  0  0  0
  -42.2050  -17.8310   36.4150 C   0  0  0  0  0  0  0  0  0  0  0  0
  -41.3850  -18.6050   35.3900 C   0  0  0  0  0  0  0  0  0  0  0  0
  -40.3980  -19.5400   36.0790 C   0  0  0  0  0  0  0  0  0  0  0  0
  -43.9320  -17.0450   31.3420 O   0  0  0  0  0  0  0  0  0  0  0  0
  -47.7859  -16.0908   31.2622 H   0  0  0  0  0  0  0  0  0  0  0  0
  -47.0242  -14.4865   31.5320 H   0  0  0  0  0  0  0  0  0  0  0  0
  -45.2479  -15.4085   32.7949 H   0  0  0  0  0  0  0  0  0  0  0  0
  -45.3581  -15.9858   30.2744 H   0  0  0  0  0  0  0  0  0  0  0  0
  -45.8392  -17.6383   30.7888 H   0  0  0  0  0  0  0  0  0  0  0  0
  -52.1765  -14.9967   32.8553 H   0  0  0  0  0  0  0  0  0  0  0  0
  -51.7986  -13.7723   31.5966 H   0  0  0  0  0  0  0  0  0  0  0  0
  -51.5008  -16.3156   30.3439 H   0  0  0  0  0  0  0  0  0  0  0  0
  -53.0171  -16.4066   31.3026 H   0  0  0  0  0  0  0  0  0  0  0  0
  -52.5941  -13.2986   28.5168 H   0  0  0  0  0  0  0  0  0  0  0  0
  -51.2033  -14.3976   28.8069 H   0  0  0  0  0  0  0  0  0  0  0  0
  -51.7192  -13.2453   30.0846 H   0  0  0  0  0  0  0  0  0  0  0  0
  -54.1320  -16.5433   29.1294 H   0  0  0  0  0  0  0  0  0  0  0  0
  -52.5834  -16.2787   28.2586 H   0  0  0  0  0  0  0  0  0  0  0  0
  -53.9736  -15.1773   27.9738 H   0  0  0  0  0  0  0  0  0  0  0  0
  -53.7780  -13.6030   31.2604 H   0  0  0  0  0  0  0  0  0  0  0  0
  -54.8146  -15.0115   30.8504 H   0  0  0  0  0  0  0  0  0  0  0  0
  -54.6584  -13.6448   29.6953 H   0  0  0  0  0  0  0  0  0  0  0  0
  -43.6776  -18.1141   33.9625 H   0  0  0  0  0  0  0  0  0  0  0  0
  -44.5145  -18.7084   35.4366 H   0  0  0  0  0  0  0  0  0  0  0  0
  -43.8651  -16.4688   36.5265 H   0  0  0  0  0  0  0  0  0  0  0  0
  -42.7802  -16.2158   35.1173 H   0  0  0  0  0  0  0  0  0  0  0  0
  -42.6950  -18.5455   37.0928 H   0  0  0  0  0  0  0  0  0  0  0  0
  -41.5319  -17.1803   36.9924 H   0  0  0  0  0  0  0  0  0  0  0  0
  -40.8290  -17.8936   34.7618 H   0  0  0  0  0  0  0  0  0  0  0  0
  -42.0635  -19.1984   34.7595 H   0  0  0  0  0  0  0  0  0  0  0  0
  -39.8192  -20.0863   35.3196 H   0  0  0  0  0  0  0  0  0  0  0  0
  -40.9485  -20.2567   36.7061 H   0  0  0  0  0  0  0  0  0  0  0  0
  -39.7139  -18.9519   36.7084 H   0  0  0  0  0  0  0  0  0  0  0  0
  -43.4675  -16.2570   31.5982 H   0  0  0  0  0  0  0  0  0  0  0  0
  1 10  1  0  0  0  0
  1 12  1  0  0  0  0
  1 14  1  0  0  0  0
  2  7  1  0  0  0  0
  2 11  1  1  0  0  0
  2 13  2  0  0  0  0
  3  4  1  0  0  0  0
  3 24  1  0  0  0  0
  3 25  1  0  0  0  0
  4  5  1  0  0  0  0
  4 16  1  0  0  0  0
  4 26  1  1  0  0  0
  5 23  1  0  0  0  0
  5 27  1  0  0  0  0
  5 28  1  0  0  0  0
  6  8  1  0  0  0  0
  6  9  1  0  0  0  0
  6 29  1  0  0  0  0
  6 30  1  0  0  0  0
  7  3  1  0  0  0  0
  8  1  1  0  0  0  0
  8 31  1  0  0  0  0
  8 32  1  0  0  0  0
  9  2  1  0  0  0  0
 10 33  1  0  0  0  0
 10 34  1  0  0  0  0
 10 35  1  0  0  0  0
 12 36  1  0  0  0  0
 12 37  1  0  0  0  0
 12 38  1  0  0  0  0
 14 39  1  0  0  0  0
 14 40  1  0  0  0  0
 14 41  1  0  0  0  0
 15 17  1  0  0  0  0
 15 18  2  0  0  0  0
 16 15  1  0  0  0  0
 17 19  1  0  0  0  0
 17 42  1  0  0  0  0
 17 43  1  0  0  0  0
 19 20  1  0  0  0  0
 19 44  1  0  0  0  0
 19 45  1  0  0  0  0
 20 21  1  0  0  0  0
 20 46  1  0  0  0  0
 20 47  1  0  0  0  0
 21 22  1  0  0  0  0
 21 48  1  0  0  0  0
 21 49  1  0  0  0  0
 22 50  1  0  0  0  0
 22 51  1  0  0  0  0
 22 52  1  0  0  0  0
 23 53  1  0  0  0  0
M  CHG  1   1   1
M  END
