4tpp_ligand
 OpenBabel08222323353D

 61 66  0  0  0  0  0  0  0  0999 V2000
    7.3240   94.3140   42.6070 C   0  0  0  0  0  0  0  0  0  0  0  0
    7.8570   93.1660   43.3460 C   0  0  0  0  0  0  0  0  0  0  0  0
    7.2400   92.6870   44.2470 O   0  0  0  0  0  0  0  0  0  0  0  0
    9.1350   92.6160   42.9760 N   0  0  0  0  0  0  0  0  0  0  0  0
    9.7210   91.4850   43.6680 C   0  0  0  0  0  0  0  0  0  0  0  0
   10.1600   90.4270   42.7300 C   0  0  0  0  0  0  0  0  0  0  0  0
   11.0080   90.9840   41.6490 C   0  0  0  0  0  0  0  0  0  0  0  0
   10.3420   92.1120   40.9410 C   0  0  0  0  0  0  0  0  0  0  0  0
    9.9170   93.1620   41.8970 C   0  0  0  0  0  0  0  0  0  0  0  0
   11.5140   89.9310   40.6450 C   0  0  0  0  0  0  0  0  0  0  0  0
   10.9380   89.9010   39.3970 N   0  0  0  0  0  0  0  0  0  0  0  0
   11.3760   88.9480   38.4550 C   0  0  0  0  0  0  0  0  0  0  0  0
   10.8010   88.8820   37.1290 C   0  0  0  0  0  0  0  0  0  0  0  0
   11.2540   87.9290   36.2210 C   0  0  0  0  0  0  0  0  0  0  0  0
   12.2770   87.0220   36.5900 C   0  0  0  0  0  0  0  0  0  0  0  0
   12.8470   87.0840   37.9000 C   0  0  0  0  0  0  0  0  0  0  0  0
   12.3930   88.0450   38.8190 C   0  0  0  0  0  0  0  0  0  0  0  0
   12.9830   88.0820   40.1240 N   0  0  0  0  0  0  0  0  0  0  0  0
   12.5760   88.9830   41.0290 C   0  0  0  0  0  0  0  0  0  0  0  0
   13.1740   89.0250   42.3240 O   0  0  0  0  0  0  0  0  0  0  0  0
   13.8040   87.7870   42.7030 C   0  0  0  0  0  0  0  0  0  0  0  0
   15.1560   87.6620   42.1580 C   0  0  0  0  0  0  0  0  0  0  0  0
   15.7130   87.9780   43.4670 N   0  0  0  0  0  0  0  0  0  0  0  0
   14.3750   87.9310   44.0460 C   0  0  0  0  0  0  0  0  0  0  0  0
   16.7150   88.1760   44.4800 C   0  0  0  0  0  0  0  0  0  0  0  0
   16.3890   88.1980   45.8590 C   0  0  0  0  0  0  0  0  0  0  0  0
   17.4080   88.3960   46.7800 C   0  0  0  0  0  0  0  0  0  0  0  0
   18.7350   88.5700   46.3210 C   0  0  0  0  0  0  0  0  0  0  0  0
   19.8210   88.7780   47.2310 C   0  0  0  0  0  0  0  0  0  0  0  0
   21.1310   88.9480   46.7260 C   0  0  0  0  0  0  0  0  0  0  0  0
   21.3770   88.9140   45.3340 C   0  0  0  0  0  0  0  0  0  0  0  0
   20.3210   88.7100   44.4520 C   0  0  0  0  0  0  0  0  0  0  0  0
   18.9850   88.5380   44.9700 C   0  0  0  0  0  0  0  0  0  0  0  0
   17.9540   88.3410   44.0760 N   0  0  0  0  0  0  0  0  0  0  0  0
    8.0355   94.6063   41.8207 H   0  0  0  0  0  0  0  0  0  0  0  0
    7.1740   95.1570   43.2975 H   0  0  0  0  0  0  0  0  0  0  0  0
    6.3625   94.0403   42.1481 H   0  0  0  0  0  0  0  0  0  0  0  0
    8.9728   91.0624   44.3547 H   0  0  0  0  0  0  0  0  0  0  0  0
   10.5916   91.8330   44.2433 H   0  0  0  0  0  0  0  0  0  0  0  0
    9.2733   89.9544   42.2824 H   0  0  0  0  0  0  0  0  0  0  0  0
   10.7367   89.6726   43.2851 H   0  0  0  0  0  0  0  0  0  0  0  0
   11.8999   91.3990   42.1413 H   0  0  0  0  0  0  0  0  0  0  0  0
    9.4580   91.7309   40.4088 H   0  0  0  0  0  0  0  0  0  0  0  0
   11.0460   92.5483   40.2171 H   0  0  0  0  0  0  0  0  0  0  0  0
   10.8117   93.6465   42.3150 H   0  0  0  0  0  0  0  0  0  0  0  0
    9.3124   93.9084   41.3609 H   0  0  0  0  0  0  0  0  0  0  0  0
   10.0177   89.5744   36.8427 H   0  0  0  0  0  0  0  0  0  0  0  0
   10.8221   87.8810   35.2279 H   0  0  0  0  0  0  0  0  0  0  0  0
   12.6276   86.2815   35.8802 H   0  0  0  0  0  0  0  0  0  0  0  0
   13.6294   86.3896   38.1841 H   0  0  0  0  0  0  0  0  0  0  0  0
   13.1424   86.9233   42.5413 H   0  0  0  0  0  0  0  0  0  0  0  0
   15.3958   88.3997   41.3780 H   0  0  0  0  0  0  0  0  0  0  0  0
   15.4030   86.6528   41.7967 H   0  0  0  0  0  0  0  0  0  0  0  0
   14.1999   87.0673   44.7042 H   0  0  0  0  0  0  0  0  0  0  0  0
   14.0769   88.8539   44.5650 H   0  0  0  0  0  0  0  0  0  0  0  0
   15.3649   88.0630   46.1876 H   0  0  0  0  0  0  0  0  0  0  0  0
   17.1893   88.4172   47.8415 H   0  0  0  0  0  0  0  0  0  0  0  0
   19.6402   88.8050   48.2995 H   0  0  0  0  0  0  0  0  0  0  0  0
   21.9546   89.1059   47.4128 H   0  0  0  0  0  0  0  0  0  0  0  0
   22.3842   89.0464   44.9558 H   0  0  0  0  0  0  0  0  0  0  0  0
   20.5002   88.6804   43.3833 H   0  0  0  0  0  0  0  0  0  0  0  0
  1  2  1  0  0  0  0
  1 35  1  0  0  0  0
  1 36  1  0  0  0  0
  1 37  1  0  0  0  0
  2  3  2  0  0  0  0
  2  4  1  0  0  0  0
  4  5  1  0  0  0  0
  4  9  1  0  0  0  0
  5  6  1  0  0  0  0
  5 38  1  0  0  0  0
  5 39  1  0  0  0  0
  6  7  1  0  0  0  0
  6 40  1  0  0  0  0
  6 41  1  0  0  0  0
  7  8  1  0  0  0  0
  7 10  1  0  0  0  0
  7 42  1  0  0  0  0
  8  9  1  0  0  0  0
  8 43  1  0  0  0  0
  8 44  1  0  0  0  0
  9 45  1  0  0  0  0
  9 46  1  0  0  0  0
 10 11  2  0  0  0  0
 10 19  1  0  0  0  0
 11 12  1  0  0  0  0
 12 13  2  0  0  0  0
 12 17  1  0  0  0  0
 13 14  1  0  0  0  0
 13 47  1  0  0  0  0
 14 15  2  0  0  0  0
 14 48  1  0  0  0  0
 15 16  1  0  0  0  0
 15 49  1  0  0  0  0
 16 17  2  0  0  0  0
 16 50  1  0  0  0  0
 17 18  1  0  0  0  0
 18 19  2  0  0  0  0
 19 20  1  0  0  0  0
 20 21  1  0  0  0  0
 21 22  1  0  0  0  0
 21 24  1  0  0  0  0
 21 51  1  0  0  0  0
 22 23  1  0  0  0  0
 22 52  1  0  0  0  0
 22 53  1  0  0  0  0
 23 24  1  0  0  0  0
 23 25  1  0  0  0  0
 24 54  1  0  0  0  0
 24 55  1  0  0  0  0
 25 26  2  0  0  0  0
 25 34  1  0  0  0  0
 26 27  1  0  0  0  0
 26 56  1  0  0  0  0
 27 28  2  0  0  0  0
 27 57  1  0  0  0  0
 28 29  1  0  0  0  0
 28 33  1  0  0  0  0
 29 30  2  0  0  0  0
 29 58  1  0  0  0  0
 30 31  1  0  0  0  0
 30 59  1  0  0  0  0
 31 32  2  0  0  0  0
 31 60  1  0  0  0  0
 32 33  1  0  0  0  0
 32 61  1  0  0  0  0
 33 34  2  0  0  0  0
M  END
