4trz_ligand
 OpenBabel08222323353D

 93 94  0  0  1  0  0  0  0  0999 V2000
   24.0890    9.6680   21.9410 N   0  3  0  0  0  0  0  0  0  0  0  0
   24.9000    8.4760   21.7200 C   0  0  2  0  0  0  0  0  0  0  0  0
   26.1690    8.8080   20.9410 C   0  0  0  0  0  0  0  0  0  0  0  0
   26.4870    9.9780   20.7240 O   0  0  0  0  0  0  0  0  0  0  0  0
   24.0920    7.4090   20.9790 C   0  0  0  0  0  0  0  0  0  0  0  0
   22.8430    6.9540   21.7160 C   0  0  0  0  0  0  0  0  0  0  0  0
   22.0680    5.8980   20.9520 C   0  0  0  0  0  0  0  0  0  0  0  0
   22.5100    5.5170   19.8460 O   0  5  0  0  0  0  0  0  0  0  0  0
   21.0180    5.4480   21.4560 O   0  0  0  0  0  0  0  0  0  0  0  0
   26.9590    7.8280   20.5430 N   0  0  0  0  0  0  0  0  0  0  0  0
   27.9360    8.1040   19.4900 C   0  0  2  0  0  0  0  0  0  0  0  0
   27.8790    6.9840   18.4840 C   0  0  0  0  0  0  0  0  0  0  0  0
   27.8000    5.8230   18.8890 O   0  0  0  0  0  0  0  0  0  0  0  0
   29.3640    8.2090   20.0550 C   0  0  2  0  0  0  0  0  0  0  0  0
   29.7150    6.9530   20.8530 C   0  0  0  0  0  0  0  0  0  0  0  0
   29.5040    9.4530   20.9200 C   0  0  0  0  0  0  0  0  0  0  0  0
   30.9500    7.1030   21.7160 C   0  0  0  0  0  0  0  0  0  0  0  0
   27.9130    7.2620   17.1830 N   0  0  0  0  0  0  0  0  0  0  0  0
   27.7590    6.0750   16.3550 C   0  0  2  0  0  0  0  0  0  0  0  0
   28.9690    5.6420   15.5970 C   0  0  0  0  0  0  0  0  0  0  0  0
   29.2020    4.4300   15.4310 O   0  0  0  0  0  0  0  0  0  0  0  0
   26.5620    6.2580   15.4600 C   0  0  0  0  0  0  0  0  0  0  0  0
   25.2570    6.1240   16.2070 C   0  0  0  0  0  0  0  0  0  0  0  0
   24.6210    6.7810   17.2160 C   0  0  0  0  0  0  0  0  0  0  0  0
   23.3920    6.2510   17.5170 C   0  0  0  0  0  0  0  0  0  0  0  0
   23.0100    5.1620   16.7940 C   0  0  0  0  0  0  0  0  0  0  0  0
   24.2780    4.8610   15.7020 S   0  0  0  0  0  0  0  0  0  0  0  0
   32.4420    6.8900   15.4940 C   0  0  0  0  0  0  0  0  0  0  0  0
   31.9550    8.2450   15.9510 C   0  0  0  0  0  0  0  0  0  0  0  0
   30.7640    8.7220   16.4820 C   0  0  0  0  0  0  0  0  0  0  0  0
   30.8000   10.0990   16.7530 C   0  0  0  0  0  0  0  0  0  0  0  0
   30.0840    6.2460   15.6520 N   0  0  0  0  0  0  0  0  0  0  0  0
   31.2990    6.1390   14.8220 C   0  0  2  0  0  0  0  0  0  0  0  0
   33.0740    9.5500   15.8150 S   0  0  0  0  0  0  0  0  0  0  0  0
   31.9980   10.7490   16.4520 C   0  0  0  0  0  0  0  0  0  0  0  0
   31.6510    4.6710   14.6240 C   0  0  2  0  0  0  0  0  0  0  0  0
   33.0590    4.5450   14.3880 O   0  0  0  0  0  0  0  0  0  0  0  0
   30.8860    4.0780   13.4500 C   0  0  0  0  0  0  0  0  0  0  0  0
   31.0710    3.3550   12.2250 N   0  3  0  0  0  0  0  0  0  0  0  0
   30.7550    2.2190   11.3820 C   0  0  1  0  0  0  0  0  0  0  0  0
   31.8750    2.0120   10.3690 C   0  0  0  0  0  0  0  0  0  0  0  0
   32.1410    3.2870    9.5800 C   0  0  0  0  0  0  0  0  0  0  0  0
   33.6000    3.6830    9.6610 C   0  0  0  0  0  0  0  0  0  0  0  0
   30.6120    0.9900   12.2290 C   0  0  0  0  0  0  0  0  0  0  0  0
   29.4770    0.4840   12.3590 O   0  5  0  0  0  0  0  0  0  0  0  0
   31.6330    0.5180   12.7730 O   0  0  0  0  0  0  0  0  0  0  0  0
   23.2594    9.4191   22.4566 H   0  0  0  0  0  0  0  0  0  0  0  0
   23.8260   10.0649   21.0526 H   0  0  0  0  0  0  0  0  0  0  0  0
   24.6211   10.3437   22.4666 H   0  0  0  0  0  0  0  0  0  0  0  0
   25.1925    8.0724   22.7006 H   0  0  0  0  0  0  0  0  0  0  0  0
   24.7386    6.5332   20.8216 H   0  0  0  0  0  0  0  0  0  0  0  0
   23.7880    7.8201   20.0051 H   0  0  0  0  0  0  0  0  0  0  0  0
   22.1900    7.8250   21.8739 H   0  0  0  0  0  0  0  0  0  0  0  0
   23.1404    6.5373   22.6896 H   0  0  0  0  0  0  0  0  0  0  0  0
   26.8910    6.9180   20.9520 H   0  0  0  0  0  0  0  0  0  0  0  0
   27.6767    9.0534   18.9987 H   0  0  0  0  0  0  0  0  0  0  0  0
   30.0662    8.2921   19.2124 H   0  0  0  0  0  0  0  0  0  0  0  0
   29.8846    6.1284   20.1451 H   0  0  0  0  0  0  0  0  0  0  0  0
   28.8639    6.7072   21.5051 H   0  0  0  0  0  0  0  0  0  0  0  0
   29.2471   10.3429   20.3267 H   0  0  0  0  0  0  0  0  0  0  0  0
   30.5412    9.5369   21.2765 H   0  0  0  0  0  0  0  0  0  0  0  0
   28.8249    9.3785   21.7821 H   0  0  0  0  0  0  0  0  0  0  0  0
   31.1363    6.1629   22.2560 H   0  0  0  0  0  0  0  0  0  0  0  0
   30.7951    7.9169   22.4396 H   0  0  0  0  0  0  0  0  0  0  0  0
   31.8158    7.3380   21.0795 H   0  0  0  0  0  0  0  0  0  0  0  0
   28.0313    8.1843   16.8151 H   0  0  0  0  0  0  0  0  0  0  0  0
   27.5262    5.2475   17.0412 H   0  0  0  0  0  0  0  0  0  0  0  0
   26.5945    5.4964   14.6670 H   0  0  0  0  0  0  0  0  0  0  0  0
   26.6088    7.2599   15.0084 H   0  0  0  0  0  0  0  0  0  0  0  0
   25.0454    7.6409   17.7322 H   0  0  0  0  0  0  0  0  0  0  0  0
   22.7566    6.6777   18.2917 H   0  0  0  0  0  0  0  0  0  0  0  0
   22.0829    4.5996   16.8946 H   0  0  0  0  0  0  0  0  0  0  0  0
   32.7971    6.3160   16.3625 H   0  0  0  0  0  0  0  0  0  0  0  0
   33.2668    7.0193   14.7778 H   0  0  0  0  0  0  0  0  0  0  0  0
   29.8939    8.0943   16.6685 H   0  0  0  0  0  0  0  0  0  0  0  0
   29.9454   10.6278   17.1725 H   0  0  0  0  0  0  0  0  0  0  0  0
   30.1510    6.9155   16.3918 H   0  0  0  0  0  0  0  0  0  0  0  0
   31.1053    6.5932   13.8391 H   0  0  0  0  0  0  0  0  0  0  0  0
   32.2148   11.8071   16.5910 H   0  0  0  0  0  0  0  0  0  0  0  0
   31.3868    4.1164   15.5365 H   0  0  0  0  0  0  0  0  0  0  0  0
   33.5360    4.8877   15.1347 H   0  0  0  0  0  0  0  0  0  0  0  0
   30.3484    4.9657   13.0855 H   0  0  0  0  0  0  0  0  0  0  0  0
   30.1839    3.4145   13.9762 H   0  0  0  0  0  0  0  0  0  0  0  0
   32.0716    3.2402   12.2658 H   0  0  0  0  0  0  0  0  0  0  0  0
   30.8436    4.0929   11.5771 H   0  0  0  0  0  0  0  0  0  0  0  0
   29.8108    2.4088   10.8505 H   0  0  0  0  0  0  0  0  0  0  0  0
   31.5860    1.2116    9.6720 H   0  0  0  0  0  0  0  0  0  0  0  0
   32.7923    1.7209   10.9017 H   0  0  0  0  0  0  0  0  0  0  0  0
   31.5247    4.0997    9.9919 H   0  0  0  0  0  0  0  0  0  0  0  0
   31.8718    3.1205    8.5265 H   0  0  0  0  0  0  0  0  0  0  0  0
   33.7623    4.6049    9.0834 H   0  0  0  0  0  0  0  0  0  0  0  0
   34.2225    2.8763    9.2465 H   0  0  0  0  0  0  0  0  0  0  0  0
   33.8753    3.8556   10.7119 H   0  0  0  0  0  0  0  0  0  0  0  0
  1 47  1  0  0  0  0
  1 48  1  0  0  0  0
  1 49  1  0  0  0  0
  2  1  1  0  0  0  0
  2  5  1  0  0  0  0
  2 50  1  1  0  0  0
  3  2  1  0  0  0  0
  3  4  2  0  0  0  0
  5  6  1  0  0  0  0
  5 51  1  0  0  0  0
  5 52  1  0  0  0  0
  6  7  1  0  0  0  0
  6 53  1  0  0  0  0
  6 54  1  0  0  0  0
  7  8  1  0  0  0  0
  7  9  2  0  0  0  0
 10  3  1  0  0  0  0
 10 55  1  0  0  0  0
 11 10  1  0  0  0  0
 11 14  1  0  0  0  0
 11 56  1  6  0  0  0
 12 11  1  0  0  0  0
 12 13  2  0  0  0  0
 14 15  1  0  0  0  0
 14 16  1  0  0  0  0
 14 57  1  6  0  0  0
 15 17  1  0  0  0  0
 15 58  1  0  0  0  0
 15 59  1  0  0  0  0
 16 60  1  0  0  0  0
 16 61  1  0  0  0  0
 16 62  1  0  0  0  0
 17 63  1  0  0  0  0
 17 64  1  0  0  0  0
 17 65  1  0  0  0  0
 18 12  1  0  0  0  0
 18 66  1  0  0  0  0
 19 18  1  0  0  0  0
 19 22  1  0  0  0  0
 19 67  1  1  0  0  0
 20 19  1  0  0  0  0
 20 21  2  0  0  0  0
 22 23  1  0  0  0  0
 22 68  1  0  0  0  0
 22 69  1  0  0  0  0
 23 24  2  0  0  0  0
 23 27  1  0  0  0  0
 24 25  1  0  0  0  0
 24 70  1  0  0  0  0
 25 71  1  0  0  0  0
 26 25  2  0  0  0  0
 26 72  1  0  0  0  0
 27 26  1  0  0  0  0
 28 29  1  0  0  0  0
 28 73  1  0  0  0  0
 28 74  1  0  0  0  0
 29 30  2  0  0  0  0
 29 34  1  0  0  0  0
 30 31  1  0  0  0  0
 30 75  1  0  0  0  0
 31 35  2  0  0  0  0
 31 76  1  0  0  0  0
 32 20  1  0  0  0  0
 32 33  1  0  0  0  0
 32 77  1  0  0  0  0
 33 28  1  0  0  0  0
 33 36  1  0  0  0  0
 33 78  1  6  0  0  0
 34 35  1  0  0  0  0
 35 79  1  0  0  0  0
 36 37  1  0  0  0  0
 36 38  1  0  0  0  0
 36 80  1  1  0  0  0
 37 81  1  0  0  0  0
 38 39  1  0  0  0  0
 38 82  1  0  0  0  0
 38 83  1  0  0  0  0
 39 40  1  0  0  0  0
 39 84  1  0  0  0  0
 39 85  1  0  0  0  0
 40 41  1  0  0  0  0
 40 44  1  0  0  0  0
 40 86  1  6  0  0  0
 41 42  1  0  0  0  0
 41 87  1  0  0  0  0
 41 88  1  0  0  0  0
 42 43  1  0  0  0  0
 42 89  1  0  0  0  0
 42 90  1  0  0  0  0
 43 91  1  0  0  0  0
 43 92  1  0  0  0  0
 43 93  1  0  0  0  0
 44 45  1  0  0  0  0
 44 46  2  0  0  0  0
M  CHG  4   1   1   8  -1  39   1  45  -1
M  END
