4tuh_ligand
 OpenBabel08222323353D

 76 83  0  0  0  0  0  0  0  0999 V2000
  -10.8650   17.3990   50.7200 C   0  0  0  0  0  0  0  0  0  0  0  0
  -11.3490   19.5290   51.4910 N   0  0  0  0  0  0  0  0  0  0  0  0
   -8.3840   20.4120   48.9210 O   0  0  0  0  0  0  0  0  0  0  0  0
   -9.7460   18.3160   49.8540 S   0  0  0  0  0  0  0  0  0  0  0  0
  -11.0230   16.0270   50.6690 C   0  0  0  0  0  0  0  0  0  0  0  0
   -9.9170   20.9990   50.3370 N   0  0  0  0  0  0  0  0  0  0  0  0
   -1.0850   22.8330   44.6990 O   0  5  0  0  0  0  0  0  0  0  0  0
   -4.5860   20.3780   47.1360 S   0  0  0  0  0  0  0  0  0  0  0  0
  -11.9880   15.4160   51.4570 C   0  0  0  0  0  0  0  0  0  0  0  0
   -5.5600   22.8930   47.1200 N   0  0  0  0  0  0  0  0  0  0  0  0
   -0.2360   20.9730   45.5210 O   0  0  0  0  0  0  0  0  0  0  0  0
  -12.7690   16.2040   52.3020 C   0  0  0  0  0  0  0  0  0  0  0  0
   -3.3830   22.5060   46.2430 N   0  0  0  0  0  0  0  0  0  0  0  0
   -1.2170   16.3480   47.3500 O   0  0  0  0  0  0  0  0  0  0  0  0
  -12.5990   17.5870   52.3550 C   0  0  0  0  0  0  0  0  0  0  0  0
    1.1550   11.5130   46.2160 N   0  0  0  0  0  0  0  0  0  0  0  0
  -11.6330   18.1990   51.5610 C   0  0  0  0  0  0  0  0  0  0  0  0
    0.4830   10.2930   46.3430 N   0  0  0  0  0  0  0  0  0  0  0  0
  -10.3080   19.7410   50.6690 C   0  0  0  0  0  0  0  0  0  0  0  0
   -8.9910   21.3370   49.4370 C   0  0  0  0  0  0  0  0  0  0  0  0
   -8.8490   22.7490   48.9660 C   0  0  0  0  0  0  0  0  0  0  0  0
   -9.9110   23.5890   49.2840 C   0  0  0  0  0  0  0  0  0  0  0  0
   -9.9620   24.8960   48.8150 C   0  0  0  0  0  0  0  0  0  0  0  0
   -8.9340   25.3410   47.9930 C   0  0  0  0  0  0  0  0  0  0  0  0
   -7.9060   24.4870   47.6200 C   0  0  0  0  0  0  0  0  0  0  0  0
   -7.8480   23.1890   48.1060 C   0  0  0  0  0  0  0  0  0  0  0  0
   -6.7190   22.2660   47.6970 C   0  0  0  0  0  0  0  0  0  0  0  0
   -5.4850   24.3410   46.9870 C   0  0  0  0  0  0  0  0  0  0  0  0
   -6.8230   25.0130   46.7100 C   0  0  0  0  0  0  0  0  0  0  0  0
   -4.5290   22.0840   46.8140 C   0  0  0  0  0  0  0  0  0  0  0  0
   -2.5010   21.5070   46.0550 C   0  0  0  0  0  0  0  0  0  0  0  0
   -1.1810   21.7890   45.4020 C   0  0  0  0  0  0  0  0  0  0  0  0
   -2.9890   20.2610   46.4750 C   0  0  0  0  0  0  0  0  0  0  0  0
   -2.2860   18.9190   46.4260 C   0  0  0  0  0  0  0  0  0  0  0  0
   -1.4500   18.6860   47.7000 C   0  0  0  0  0  0  0  0  0  0  0  0
   -0.4580   17.5570   47.5080 C   0  0  0  0  0  0  0  0  0  0  0  0
   -0.6560   15.1350   47.0610 C   0  0  0  0  0  0  0  0  0  0  0  0
   -1.4040   14.0040   46.7760 C   0  0  0  0  0  0  0  0  0  0  0  0
   -0.7610   12.8020   46.5040 C   0  0  0  0  0  0  0  0  0  0  0  0
    0.6260   12.7090   46.5250 C   0  0  0  0  0  0  0  0  0  0  0  0
    1.3850   13.8500   46.8080 C   0  0  0  0  0  0  0  0  0  0  0  0
    0.7370   15.0570   47.0870 C   0  0  0  0  0  0  0  0  0  0  0  0
    1.2830    9.3050   45.8950 C   0  0  0  0  0  0  0  0  0  0  0  0
    2.4800    9.9570   45.4540 C   0  0  0  0  0  0  0  0  0  0  0  0
    3.6370    9.4290   44.8960 C   0  0  0  0  0  0  0  0  0  0  0  0
    4.4780   11.5570   44.7720 C   0  0  0  0  0  0  0  0  0  0  0  0
    2.3690   11.3430   45.6580 C   0  0  0  0  0  0  0  0  0  0  0  0
    3.4070   12.1490   45.3010 N   0  0  0  0  0  0  0  0  0  0  0  0
    4.6420   10.2460   44.5600 N   0  0  0  0  0  0  0  0  0  0  0  0
  -10.3958   15.4307   50.0162 H   0  0  0  0  0  0  0  0  0  0  0  0
  -10.3702   21.7502   50.8170 H   0  0  0  0  0  0  0  0  0  0  0  0
  -12.1326   14.3425   51.4164 H   0  0  0  0  0  0  0  0  0  0  0  0
  -13.5197   15.7342   52.9272 H   0  0  0  0  0  0  0  0  0  0  0  0
  -13.2183   18.1850   53.0137 H   0  0  0  0  0  0  0  0  0  0  0  0
  -10.7142   23.2169   49.9097 H   0  0  0  0  0  0  0  0  0  0  0  0
  -10.7826   25.5515   49.0835 H   0  0  0  0  0  0  0  0  0  0  0  0
   -8.9351   26.3657   47.6395 H   0  0  0  0  0  0  0  0  0  0  0  0
   -6.3924   21.7185   48.5934 H   0  0  0  0  0  0  0  0  0  0  0  0
   -7.1182   21.5553   46.9584 H   0  0  0  0  0  0  0  0  0  0  0  0
   -4.8026   24.5762   46.1569 H   0  0  0  0  0  0  0  0  0  0  0  0
   -5.0795   24.7528   47.9230 H   0  0  0  0  0  0  0  0  0  0  0  0
   -6.7182   26.0965   46.8685 H   0  0  0  0  0  0  0  0  0  0  0  0
   -7.1096   24.8212   45.6655 H   0  0  0  0  0  0  0  0  0  0  0  0
   -1.6213   18.8930   45.5500 H   0  0  0  0  0  0  0  0  0  0  0  0
   -3.0387   18.1216   46.3390 H   0  0  0  0  0  0  0  0  0  0  0  0
   -2.1253   18.4324   48.5304 H   0  0  0  0  0  0  0  0  0  0  0  0
   -0.9011   19.6080   47.9422 H   0  0  0  0  0  0  0  0  0  0  0  0
    0.1517   17.7394   46.6108 H   0  0  0  0  0  0  0  0  0  0  0  0
    0.1981   17.4781   48.3874 H   0  0  0  0  0  0  0  0  0  0  0  0
   -2.4867   14.0563   46.7652 H   0  0  0  0  0  0  0  0  0  0  0  0
   -1.3508   11.9226   46.2717 H   0  0  0  0  0  0  0  0  0  0  0  0
    2.4678   13.7984   46.8109 H   0  0  0  0  0  0  0  0  0  0  0  0
    1.3209   15.9387   47.3253 H   0  0  0  0  0  0  0  0  0  0  0  0
    1.0657    8.2381   45.8730 H   0  0  0  0  0  0  0  0  0  0  0  0
    3.7254    8.3609   44.7336 H   0  0  0  0  0  0  0  0  0  0  0  0
    5.2994   12.2033   44.4844 H   0  0  0  0  0  0  0  0  0  0  0  0
  1  5  2  0  0  0  0
  1 17  1  0  0  0  0
  2 17  1  0  0  0  0
  4  1  1  0  0  0  0
  5  9  1  0  0  0  0
  5 50  1  0  0  0  0
  6 19  1  0  0  0  0
  6 51  1  0  0  0  0
  8 30  1  0  0  0  0
  9 12  2  0  0  0  0
  9 52  1  0  0  0  0
 10 27  1  0  0  0  0
 10 28  1  0  0  0  0
 12 53  1  0  0  0  0
 13 30  2  0  0  0  0
 14 36  1  0  0  0  0
 15 12  1  0  0  0  0
 15 54  1  0  0  0  0
 16 18  1  0  0  0  0
 16 40  1  0  0  0  0
 17 15  2  0  0  0  0
 19  2  2  0  0  0  0
 19  4  1  0  0  0  0
 20  3  2  0  0  0  0
 20  6  1  0  0  0  0
 21 20  1  0  0  0  0
 21 22  2  0  0  0  0
 22 23  1  0  0  0  0
 22 55  1  0  0  0  0
 23 56  1  0  0  0  0
 24 23  2  0  0  0  0
 24 57  1  0  0  0  0
 25 24  1  0  0  0  0
 26 21  1  0  0  0  0
 26 25  2  0  0  0  0
 27 26  1  0  0  0  0
 27 58  1  0  0  0  0
 27 59  1  0  0  0  0
 28 29  1  0  0  0  0
 28 60  1  0  0  0  0
 28 61  1  0  0  0  0
 29 25  1  0  0  0  0
 29 62  1  0  0  0  0
 29 63  1  0  0  0  0
 30 10  1  0  0  0  0
 31 13  1  0  0  0  0
 31 32  1  0  0  0  0
 32  7  1  0  0  0  0
 32 11  2  0  0  0  0
 33  8  1  0  0  0  0
 33 31  2  0  0  0  0
 34 33  1  0  0  0  0
 34 64  1  0  0  0  0
 34 65  1  0  0  0  0
 35 34  1  0  0  0  0
 35 66  1  0  0  0  0
 35 67  1  0  0  0  0
 36 35  1  0  0  0  0
 36 68  1  0  0  0  0
 36 69  1  0  0  0  0
 37 14  1  0  0  0  0
 38 37  2  0  0  0  0
 38 70  1  0  0  0  0
 39 38  1  0  0  0  0
 39 71  1  0  0  0  0
 40 39  2  0  0  0  0
 40 41  1  0  0  0  0
 41 42  2  0  0  0  0
 41 72  1  0  0  0  0
 42 37  1  0  0  0  0
 42 73  1  0  0  0  0
 43 18  2  0  0  0  0
 43 74  1  0  0  0  0
 44 43  1  0  0  0  0
 44 47  1  0  0  0  0
 45 44  2  0  0  0  0
 45 75  1  0  0  0  0
 46 48  1  0  0  0  0
 46 49  2  0  0  0  0
 46 76  1  0  0  0  0
 47 16  1  0  0  0  0
 47 48  2  0  0  0  0
 49 45  1  0  0  0  0
M  CHG  1   7  -1
M  END
