4tw6_ligand
 OpenBabel08222323353D

 97100  0  0  1  0  0  0  0  0999 V2000
  -12.0260    8.6260   -5.9170 C   0  0  0  0  0  0  0  0  0  0  0  0
  -13.2330    7.8510   -5.6910 O   0  0  0  0  0  0  0  0  0  0  0  0
  -13.7270    7.1770   -6.7480 C   0  0  0  0  0  0  0  0  0  0  0  0
  -13.1270    7.1420   -8.0250 C   0  0  0  0  0  0  0  0  0  0  0  0
  -14.8480    6.4410   -6.5940 C   0  0  0  0  0  0  0  0  0  0  0  0
  -15.4760    6.4170   -5.3150 O   0  0  0  0  0  0  0  0  0  0  0  0
  -16.4710    7.4080   -5.2630 C   0  0  0  0  0  0  0  0  0  0  0  0
  -15.3860    5.7180   -7.5890 C   0  0  0  0  0  0  0  0  0  0  0  0
  -16.5500    4.9740   -7.3400 O   0  0  0  0  0  0  0  0  0  0  0  0
  -17.0870    4.2690   -8.4130 C   0  0  0  0  0  0  0  0  0  0  0  0
  -14.7730    5.6620   -8.8580 C   0  0  0  0  0  0  0  0  0  0  0  0
  -13.5990    6.3830   -9.0340 C   0  0  0  0  0  0  0  0  0  0  0  0
  -12.8610    6.3610  -10.3790 C   0  0  2  0  0  0  0  0  0  0  0  0
  -13.7660    6.9900  -11.4670 C   0  0  0  0  0  0  0  0  0  0  0  0
  -13.0890    7.0260  -12.7530 C   0  0  0  0  0  0  0  0  0  0  0  0
  -12.9580    8.0880  -13.5540 C   0  0  0  0  0  0  0  0  0  0  0  0
  -12.5610    4.8840  -10.7520 C   0  0  0  0  0  0  0  0  0  0  0  0
  -13.2960    4.2300  -11.4590 O   0  0  0  0  0  0  0  0  0  0  0  0
  -11.4820    4.3190  -10.1820 N   0  0  0  0  0  0  0  0  0  0  0  0
  -10.6810    4.9460   -9.1570 C   0  0  0  0  0  0  0  0  0  0  0  0
   -9.1790    4.6260   -9.3030 C   0  0  0  0  0  0  0  0  0  0  0  0
   -8.9370    3.1470   -9.4770 C   0  0  0  0  0  0  0  0  0  0  0  0
   -9.7750    2.5990  -10.5920 C   0  0  0  0  0  0  0  0  0  0  0  0
  -11.2640    2.8870  -10.4110 C   0  0  1  0  0  0  0  0  0  0  0  0
  -11.7410    1.9980   -9.2400 C   0  0  0  0  0  0  0  0  0  0  0  0
  -11.4290    0.8430   -9.1930 O   0  0  0  0  0  0  0  0  0  0  0  0
  -12.5200    2.6020   -8.4000 O   0  0  0  0  0  0  0  0  0  0  0  0
  -12.8910    1.8630   -7.1420 C   0  0  2  0  0  0  0  0  0  0  0  0
  -14.3520    1.8730   -7.0120 C   0  0  0  0  0  0  0  0  0  0  0  0
  -14.8860    0.7830   -5.9180 C   0  0  0  0  0  0  0  0  0  0  0  0
  -14.8370   -0.5780   -6.3670 C   0  0  0  0  0  0  0  0  0  0  0  0
  -15.9390   -0.9570   -7.1850 C   0  0  0  0  0  0  0  0  0  0  0  0
  -13.8110   -1.4620   -6.1780 C   0  0  0  0  0  0  0  0  0  0  0  0
  -13.7240   -2.7290   -6.7160 C   0  0  0  0  0  0  0  0  0  0  0  0
  -14.7660   -3.1260   -7.5510 C   0  0  0  0  0  0  0  0  0  0  0  0
  -14.6870   -4.4320   -8.1410 O   0  0  0  0  0  0  0  0  0  0  0  0
  -13.7390   -5.3640   -7.8060 C   0  0  0  0  0  0  0  0  0  0  0  0
  -15.8350   -2.2310   -7.7230 C   0  0  0  0  0  0  0  0  0  0  0  0
  -17.0190   -2.7140   -8.4240 O   0  0  0  0  0  0  0  0  0  0  0  0
  -18.1150   -1.8600   -8.2350 C   0  0  0  0  0  0  0  0  0  0  0  0
  -12.0600    2.4570   -6.0170 C   0  0  0  0  0  0  0  0  0  0  0  0
  -11.1050    1.7260   -5.3790 C   0  0  0  0  0  0  0  0  0  0  0  0
  -12.2280    3.7990   -5.7390 C   0  0  0  0  0  0  0  0  0  0  0  0
  -11.4600    4.3750   -4.7890 C   0  0  0  0  0  0  0  0  0  0  0  0
  -10.4830    3.6390   -4.1660 C   0  0  0  0  0  0  0  0  0  0  0  0
  -10.3330    2.2750   -4.4440 C   0  0  0  0  0  0  0  0  0  0  0  0
   -9.3540    1.4870   -3.8910 O   0  0  0  0  0  0  0  0  0  0  0  0
   -8.4380    2.1140   -3.0260 C   0  0  0  0  0  0  0  0  0  0  0  0
   -9.0660    2.3530   -1.7600 C   0  0  0  0  0  0  0  0  0  0  0  0
   -8.3710    3.2440   -1.1650 O   0  5  0  0  0  0  0  0  0  0  0  0
  -10.1460    1.8370   -1.3540 O   0  0  0  0  0  0  0  0  0  0  0  0
  -11.7295    9.1238   -4.9820 H   0  0  0  0  0  0  0  0  0  0  0  0
  -12.2163    9.3837   -6.6914 H   0  0  0  0  0  0  0  0  0  0  0  0
  -11.2178    7.9576   -6.2487 H   0  0  0  0  0  0  0  0  0  0  0  0
  -12.2485    7.7519   -8.2020 H   0  0  0  0  0  0  0  0  0  0  0  0
  -16.9557    7.3894   -4.2757 H   0  0  0  0  0  0  0  0  0  0  0  0
  -17.2216    7.2153   -6.0436 H   0  0  0  0  0  0  0  0  0  0  0  0
  -16.0146    8.3950   -5.4288 H   0  0  0  0  0  0  0  0  0  0  0  0
  -17.9898    3.7331   -8.0846 H   0  0  0  0  0  0  0  0  0  0  0  0
  -16.3460    3.5457   -8.7842 H   0  0  0  0  0  0  0  0  0  0  0  0
  -17.3497    4.9708   -9.2182 H   0  0  0  0  0  0  0  0  0  0  0  0
  -15.2016    5.0787   -9.6649 H   0  0  0  0  0  0  0  0  0  0  0  0
  -11.9212    6.9275  -10.3018 H   0  0  0  0  0  0  0  0  0  0  0  0
  -14.0261    8.0164  -11.1689 H   0  0  0  0  0  0  0  0  0  0  0  0
  -14.6842    6.3916  -11.5609 H   0  0  0  0  0  0  0  0  0  0  0  0
  -12.6439    6.0941  -13.0984 H   0  0  0  0  0  0  0  0  0  0  0  0
  -12.4265    7.9943  -14.4999 H   0  0  0  0  0  0  0  0  0  0  0  0
  -13.3828    9.0469  -13.2607 H   0  0  0  0  0  0  0  0  0  0  0  0
  -11.0236    4.5898   -8.1743 H   0  0  0  0  0  0  0  0  0  0  0  0
  -10.8173    6.0357   -9.2200 H   0  0  0  0  0  0  0  0  0  0  0  0
   -8.6521    4.9695   -8.4006 H   0  0  0  0  0  0  0  0  0  0  0  0
   -8.7853    5.1573  -10.1820 H   0  0  0  0  0  0  0  0  0  0  0  0
   -9.1949    2.6268   -8.5427 H   0  0  0  0  0  0  0  0  0  0  0  0
   -7.8747    2.9800   -9.7085 H   0  0  0  0  0  0  0  0  0  0  0  0
   -9.6309    1.5094  -10.6370 H   0  0  0  0  0  0  0  0  0  0  0  0
   -9.4419    3.0523  -11.5373 H   0  0  0  0  0  0  0  0  0  0  0  0
  -11.8083    2.5988  -11.3224 H   0  0  0  0  0  0  0  0  0  0  0  0
  -12.5896    0.8099   -7.2426 H   0  0  0  0  0  0  0  0  0  0  0  0
  -14.7956    1.6379   -7.9907 H   0  0  0  0  0  0  0  0  0  0  0  0
  -14.6720    2.8768   -6.6959 H   0  0  0  0  0  0  0  0  0  0  0  0
  -15.9298    1.0265   -5.6706 H   0  0  0  0  0  0  0  0  0  0  0  0
  -14.2651    0.8698   -5.0142 H   0  0  0  0  0  0  0  0  0  0  0  0
  -16.7858   -0.3063   -7.3711 H   0  0  0  0  0  0  0  0  0  0  0  0
  -12.9910   -1.1373   -5.5477 H   0  0  0  0  0  0  0  0  0  0  0  0
  -12.8869   -3.3830   -6.5000 H   0  0  0  0  0  0  0  0  0  0  0  0
  -13.8968   -6.2769   -8.3990 H   0  0  0  0  0  0  0  0  0  0  0  0
  -13.8221   -5.6032   -6.7356 H   0  0  0  0  0  0  0  0  0  0  0  0
  -12.7375   -4.9597   -8.0147 H   0  0  0  0  0  0  0  0  0  0  0  0
  -18.9863   -2.2562   -8.7771 H   0  0  0  0  0  0  0  0  0  0  0  0
  -17.8696   -0.8583   -8.6176 H   0  0  0  0  0  0  0  0  0  0  0  0
  -18.3490   -1.7956   -7.1621 H   0  0  0  0  0  0  0  0  0  0  0  0
  -10.9714    0.6815   -5.6363 H   0  0  0  0  0  0  0  0  0  0  0  0
  -12.9667    4.3827   -6.2763 H   0  0  0  0  0  0  0  0  0  0  0  0
  -11.6144    5.4136   -4.5198 H   0  0  0  0  0  0  0  0  0  0  0  0
   -9.8220    4.1179   -3.4527 H   0  0  0  0  0  0  0  0  0  0  0  0
   -8.1167    3.0711   -3.4628 H   0  0  0  0  0  0  0  0  0  0  0  0
   -7.5625    1.4633   -2.8843 H   0  0  0  0  0  0  0  0  0  0  0  0
  1  2  1  0  0  0  0
  1 52  1  0  0  0  0
  1 53  1  0  0  0  0
  1 54  1  0  0  0  0
  2  3  1  0  0  0  0
  3  4  2  0  0  0  0
  3  5  1  0  0  0  0
  4 12  1  0  0  0  0
  4 55  1  0  0  0  0
  5  6  1  0  0  0  0
  5  8  2  0  0  0  0
  6  7  1  0  0  0  0
  7 56  1  0  0  0  0
  7 57  1  0  0  0  0
  7 58  1  0  0  0  0
  8  9  1  0  0  0  0
  8 11  1  0  0  0  0
  9 10  1  0  0  0  0
 10 59  1  0  0  0  0
 10 60  1  0  0  0  0
 10 61  1  0  0  0  0
 11 12  2  0  0  0  0
 11 62  1  0  0  0  0
 12 13  1  0  0  0  0
 13 14  1  0  0  0  0
 13 17  1  0  0  0  0
 13 63  1  1  0  0  0
 14 15  1  0  0  0  0
 14 64  1  0  0  0  0
 14 65  1  0  0  0  0
 15 16  2  0  0  0  0
 15 66  1  0  0  0  0
 16 67  1  0  0  0  0
 16 68  1  0  0  0  0
 17 18  2  0  0  0  0
 17 19  1  0  0  0  0
 19 20  1  0  0  0  0
 19 24  1  0  0  0  0
 20 21  1  0  0  0  0
 20 69  1  0  0  0  0
 20 70  1  0  0  0  0
 21 22  1  0  0  0  0
 21 71  1  0  0  0  0
 21 72  1  0  0  0  0
 22 23  1  0  0  0  0
 22 73  1  0  0  0  0
 22 74  1  0  0  0  0
 23 24  1  0  0  0  0
 23 75  1  0  0  0  0
 23 76  1  0  0  0  0
 24 25  1  0  0  0  0
 24 77  1  6  0  0  0
 25 26  2  0  0  0  0
 25 27  1  0  0  0  0
 27 28  1  0  0  0  0
 28 29  1  0  0  0  0
 28 41  1  0  0  0  0
 28 78  1  6  0  0  0
 29 30  1  0  0  0  0
 29 79  1  0  0  0  0
 29 80  1  0  0  0  0
 30 31  1  0  0  0  0
 30 81  1  0  0  0  0
 30 82  1  0  0  0  0
 31 32  2  0  0  0  0
 31 33  1  0  0  0  0
 32 38  1  0  0  0  0
 32 83  1  0  0  0  0
 33 34  2  0  0  0  0
 33 84  1  0  0  0  0
 34 35  1  0  0  0  0
 34 85  1  0  0  0  0
 35 36  1  0  0  0  0
 35 38  2  0  0  0  0
 36 37  1  0  0  0  0
 37 86  1  0  0  0  0
 37 87  1  0  0  0  0
 37 88  1  0  0  0  0
 38 39  1  0  0  0  0
 39 40  1  0  0  0  0
 40 89  1  0  0  0  0
 40 90  1  0  0  0  0
 40 91  1  0  0  0  0
 41 42  2  0  0  0  0
 41 43  1  0  0  0  0
 42 46  1  0  0  0  0
 42 92  1  0  0  0  0
 43 44  2  0  0  0  0
 43 93  1  0  0  0  0
 44 45  1  0  0  0  0
 44 94  1  0  0  0  0
 45 46  2  0  0  0  0
 45 95  1  0  0  0  0
 46 47  1  0  0  0  0
 47 48  1  0  0  0  0
 48 49  1  0  0  0  0
 48 96  1  0  0  0  0
 48 97  1  0  0  0  0
 49 50  1  0  0  0  0
 49 51  2  0  0  0  0
M  CHG  1  50  -1
M  END
