4twd_ligand
 OpenBabel08222323353D

 35 37  0  0  1  0  0  0  0  0999 V2000
 -125.2200  -42.2530  -68.8140 C   0  0  0  0  0  0  0  0  0  0  0  0
 -124.4700  -44.5040  -69.4830 C   0  0  0  0  0  0  0  0  0  0  0  0
 -125.2570  -46.4300  -68.2960 N   0  3  0  0  0  0  0  0  0  0  0  0
 -127.1790  -43.8700  -70.1100 C   0  0  2  0  0  0  0  0  0  0  0  0
 -126.3400  -42.8870  -68.0430 C   0  0  1  0  0  0  0  0  0  0  0  0
 -125.6360  -45.1140  -68.7490 C   0  0  2  0  0  0  0  0  0  0  0  0
 -124.8590  -43.1450  -69.9700 C   0  0  1  0  0  0  0  0  0  0  0  0
 -127.5300  -43.0300  -68.9270 C   0  0  0  0  0  0  0  0  0  0  0  0
 -126.8240  -45.2480  -69.6680 C   0  0  0  0  0  0  0  0  0  0  0  0
 -125.9690  -44.2540  -67.5540 C   0  0  0  0  0  0  0  0  0  0  0  0
 -126.0340  -43.2910  -70.8780 C   0  0  0  0  0  0  0  0  0  0  0  0
 -128.3720  -43.8640  -70.9750 C   0  0  0  0  0  0  0  0  0  0  0  0
 -126.6990  -41.9880  -66.9140 C   0  0  0  0  0  0  0  0  0  0  0  0
 -124.3458  -42.1260  -68.1585 H   0  0  0  0  0  0  0  0  0  0  0  0
 -125.5410  -41.2710  -69.1915 H   0  0  0  0  0  0  0  0  0  0  0  0
 -124.2000  -45.1394  -70.3394 H   0  0  0  0  0  0  0  0  0  0  0  0
 -123.6094  -44.4198  -68.8031 H   0  0  0  0  0  0  0  0  0  0  0  0
 -126.0287  -46.8506  -67.8025 H   0  0  0  0  0  0  0  0  0  0  0  0
 -124.4632  -46.3573  -67.6790 H   0  0  0  0  0  0  0  0  0  0  0  0
 -125.0143  -47.0017  -69.0899 H   0  0  0  0  0  0  0  0  0  0  0  0
 -124.0185  -42.6991  -70.5220 H   0  0  0  0  0  0  0  0  0  0  0  0
 -128.3461  -43.5098  -68.3669 H   0  0  0  0  0  0  0  0  0  0  0  0
 -127.8541  -42.0356  -69.2677 H   0  0  0  0  0  0  0  0  0  0  0  0
 -126.5631  -45.8698  -70.5371 H   0  0  0  0  0  0  0  0  0  0  0  0
 -127.6691  -45.7039  -69.1314 H   0  0  0  0  0  0  0  0  0  0  0  0
 -126.8140  -44.6937  -67.0040 H   0  0  0  0  0  0  0  0  0  0  0  0
 -125.0947  -44.1863  -66.8900 H   0  0  0  0  0  0  0  0  0  0  0  0
 -126.3177  -42.3048  -71.2741 H   0  0  0  0  0  0  0  0  0  0  0  0
 -125.7741  -43.9601  -71.7115 H   0  0  0  0  0  0  0  0  0  0  0  0
 -129.2256  -44.2873  -70.4253 H   0  0  0  0  0  0  0  0  0  0  0  0
 -128.1773  -44.4695  -71.8725 H   0  0  0  0  0  0  0  0  0  0  0  0
 -128.6038  -42.8308  -71.2729 H   0  0  0  0  0  0  0  0  0  0  0  0
 -126.9654  -40.9954  -67.3061 H   0  0  0  0  0  0  0  0  0  0  0  0
 -125.8407  -41.8946  -66.2324 H   0  0  0  0  0  0  0  0  0  0  0  0
 -127.5564  -42.4089  -66.3684 H   0  0  0  0  0  0  0  0  0  0  0  0
  1  7  1  0  0  0  0
  1 14  1  0  0  0  0
  1 15  1  0  0  0  0
  2  6  1  0  0  0  0
  2 16  1  0  0  0  0
  2 17  1  0  0  0  0
  3 18  1  0  0  0  0
  3 19  1  0  0  0  0
  3 20  1  0  0  0  0
  4  9  1  0  0  0  0
  4 11  1  0  0  0  0
  4 12  1  6  0  0  0
  5  1  1  0  0  0  0
  5  8  1  0  0  0  0
  5 10  1  0  0  0  0
  5 13  1  1  0  0  0
  6  3  1  1  0  0  0
  6  9  1  0  0  0  0
  6 10  1  0  0  0  0
  7  2  1  0  0  0  0
  7 11  1  0  0  0  0
  7 21  1  6  0  0  0
  8  4  1  0  0  0  0
  8 22  1  0  0  0  0
  8 23  1  0  0  0  0
  9 24  1  0  0  0  0
  9 25  1  0  0  0  0
 10 26  1  0  0  0  0
 10 27  1  0  0  0  0
 11 28  1  0  0  0  0
 11 29  1  0  0  0  0
 12 30  1  0  0  0  0
 12 31  1  0  0  0  0
 12 32  1  0  0  0  0
 13 33  1  0  0  0  0
 13 34  1  0  0  0  0
 13 35  1  0  0  0  0
M  CHG  1   3   1
M  END
