4twt_ligand
 OpenBabel08222323353D

176179  0  0  1  0  0  0  0  0999 V2000
   -7.8440   64.4900  235.5540 N   0  3  0  0  0  0  0  0  0  0  0  0
   -9.0550   64.3300  234.6790 C   0  0  2  0  0  0  0  0  0  0  0  0
   -9.3480   65.5770  233.8560 C   0  0  0  0  0  0  0  0  0  0  0  0
   -9.1840   65.5660  232.6230 O   0  0  0  0  0  0  0  0  0  0  0  0
  -10.2800   63.9280  235.4980 C   0  0  0  0  0  0  0  0  0  0  0  0
   -9.7490   66.6540  234.5410 N   0  0  0  0  0  0  0  0  0  0  0  0
   -9.8550   67.9940  233.9370 C   0  0  2  0  0  0  0  0  0  0  0  0
   -9.1900   69.0950  234.7510 C   0  0  0  0  0  0  0  0  0  0  0  0
   -9.8540   69.7600  235.5410 O   0  0  0  0  0  0  0  0  0  0  0  0
  -11.2950   68.3550  233.7820 C   0  0  0  0  0  0  0  0  0  0  0  0
  -11.5070   69.8910  232.9020 S   0  0  0  0  0  0  0  0  0  0  0  0
   -7.8830   69.3290  234.5370 N   0  0  0  0  0  0  0  0  0  0  0  0
   -7.1300   70.2310  235.3850 C   0  0  2  0  0  0  0  0  0  0  0  0
   -7.4300   71.6570  235.0920 C   0  0  0  0  0  0  0  0  0  0  0  0
   -8.1610   71.9750  234.1410 O   0  0  0  0  0  0  0  0  0  0  0  0
   -5.6700   69.9610  235.0030 C   0  0  0  0  0  0  0  0  0  0  0  0
   -5.7060   68.7130  234.2010 C   0  0  0  0  0  0  0  0  0  0  0  0
   -7.0240   68.7620  233.5020 C   0  0  0  0  0  0  0  0  0  0  0  0
   -6.8680   72.5420  235.9010 N   0  0  0  0  0  0  0  0  0  0  0  0
   -7.1820   73.9240  235.6130 C   0  0  2  0  0  0  0  0  0  0  0  0
   -6.4460   74.3570  234.3510 C   0  0  0  0  0  0  0  0  0  0  0  0
   -5.3160   73.9050  234.1280 O   0  0  0  0  0  0  0  0  0  0  0  0
   -6.6760   74.6580  236.8540 C   0  0  0  0  0  0  0  0  0  0  0  0
   -5.5550   73.8200  237.3610 C   0  0  0  0  0  0  0  0  0  0  0  0
   -5.9320   72.4000  237.0300 C   0  0  0  0  0  0  0  0  0  0  0  0
   -7.1120   75.1640  233.5190 N   0  0  0  0  0  0  0  0  0  0  0  0
   -6.4910   75.8070  232.3660 C   0  0  2  0  0  0  0  0  0  0  0  0
   -7.0930   77.2130  232.1290 C   0  0  0  0  0  0  0  0  0  0  0  0
   -8.1660   77.5400  232.6360 O   0  0  0  0  0  0  0  0  0  0  0  0
   -6.6670   74.9500  231.1180 C   0  0  0  0  0  0  0  0  0  0  0  0
   -8.3910   74.7750  230.5930 S   0  0  0  0  0  0  0  0  0  0  0  0
   -6.4240   78.0010  231.2900 N   0  0  0  0  0  0  0  0  0  0  0  0
   -6.7790   79.4000  231.0460 C   0  0  2  0  0  0  0  0  0  0  0  0
   -8.1820   79.6060  230.4270 C   0  0  0  0  0  0  0  0  0  0  0  0
   -8.8060   80.6510  230.6410 O   0  0  0  0  0  0  0  0  0  0  0  0
   -5.7000   80.0860  230.1850 C   0  0  0  0  0  0  0  0  0  0  0  0
   -4.2070   79.9120  230.5700 C   0  0  0  0  0  0  0  0  0  0  0  0
   -3.3120   80.5490  229.5130 C   0  0  0  0  0  0  0  0  0  0  0  0
   -3.8320   80.4570  231.9360 C   0  0  0  0  0  0  0  0  0  0  0  0
   -8.6990   78.6190  229.7010 N   0  0  0  0  0  0  0  0  0  0  0  0
   -9.9900   78.7790  229.0150 C   0  0  2  0  0  0  0  0  0  0  0  0
  -11.2140   78.1850  229.7560 C   0  0  0  0  0  0  0  0  0  0  0  0
  -12.3680   78.3810  229.3300 O   0  0  0  0  0  0  0  0  0  0  0  0
   -9.8970   78.2450  227.5720 C   0  0  0  0  0  0  0  0  0  0  0  0
   -8.6090   78.6000  226.9280 C   0  0  0  0  0  0  0  0  0  0  0  0
   -8.2850   79.7890  226.3510 C   0  0  0  0  0  0  0  0  0  0  0  0
   -7.4290   77.7830  226.8420 C   0  0  0  0  0  0  0  0  0  0  0  0
   -6.9720   79.7670  225.9150 N   0  0  0  0  0  0  0  0  0  0  0  0
   -6.4320   78.5450  226.2010 C   0  0  0  0  0  0  0  0  0  0  0  0
   -7.1190   76.4880  227.2530 C   0  0  0  0  0  0  0  0  0  0  0  0
   -5.1650   78.0540  225.9560 C   0  0  0  0  0  0  0  0  0  0  0  0
   -5.8500   75.9950  227.0030 C   0  0  0  0  0  0  0  0  0  0  0  0
   -4.8870   76.7790  226.3620 C   0  0  0  0  0  0  0  0  0  0  0  0
  -10.9810   77.4940  230.8660 N   0  0  0  0  0  0  0  0  0  0  0  0
  -12.0410   76.6450  231.4280 C   0  0  2  0  0  0  0  0  0  0  0  0
  -13.3470   77.4010  231.7210 C   0  0  0  0  0  0  0  0  0  0  0  0
  -14.4440   76.8650  231.6000 O   0  0  0  0  0  0  0  0  0  0  0  0
  -11.5270   75.9300  232.6650 C   0  0  0  0  0  0  0  0  0  0  0  0
  -11.2350   76.8710  233.8260 C   0  0  0  0  0  0  0  0  0  0  0  0
  -10.1140   76.3980  234.7250 C   0  0  0  0  0  0  0  0  0  0  0  0
   -9.5520   75.3300  234.5030 O   0  0  0  0  0  0  0  0  0  0  0  0
   -9.7530   77.2070  235.7240 N   0  0  0  0  0  0  0  0  0  0  0  0
  -13.2110   78.6630  232.0750 N   0  0  0  0  0  0  0  0  0  0  0  0
  -14.3600   79.5240  232.3180 C   0  0  2  0  0  0  0  0  0  0  0  0
  -15.3890   79.4980  231.1830 C   0  0  0  0  0  0  0  0  0  0  0  0
  -16.5630   79.6920  231.4440 O   0  0  0  0  0  0  0  0  0  0  0  0
  -13.9160   80.9810  232.6610 C   0  0  0  0  0  0  0  0  0  0  0  0
  -13.0630   81.6000  231.5550 C   0  0  0  0  0  0  0  0  0  0  0  0
  -15.1070   81.8600  232.9410 C   0  0  0  0  0  0  0  0  0  0  0  0
  -14.9660   79.2450  229.9470 N   0  0  0  0  0  0  0  0  0  0  0  0
  -15.9100   79.2230  228.8140 C   0  0  2  0  0  0  0  0  0  0  0  0
  -16.6140   77.9080  228.5760 C   0  0  0  0  0  0  0  0  0  0  0  0
  -17.4590   77.8190  227.7000 O   0  0  0  0  0  0  0  0  0  0  0  0
  -15.1930   79.5740  227.5220 C   0  0  0  0  0  0  0  0  0  0  0  0
  -14.7930   81.0300  227.4640 C   0  0  0  0  0  0  0  0  0  0  0  0
  -13.8050   81.2140  226.3260 C   0  0  0  0  0  0  0  0  0  0  0  0
  -16.0250   81.9090  227.2960 C   0  0  0  0  0  0  0  0  0  0  0  0
  -16.2340   76.8690  229.3000 N   0  0  0  0  0  0  0  0  0  0  0  0
  -16.8770   75.5690  229.1270 C   0  0  2  0  0  0  0  0  0  0  0  0
  -17.4800   75.0580  230.4240 C   0  0  0  0  0  0  0  0  0  0  0  0
  -17.7490   73.8810  230.5530 O   0  0  0  0  0  0  0  0  0  0  0  0
  -15.8660   74.5720  228.5600 C   0  0  0  0  0  0  0  0  0  0  0  0
  -14.4560   74.1280  229.6400 S   0  0  0  0  0  0  0  0  0  0  0  0
  -17.6760   75.9490  231.3930 N   0  0  0  0  0  0  0  0  0  0  0  0
  -18.5440   75.6640  232.5490 C   0  0  0  0  0  0  0  0  0  0  0  0
  -17.8930   75.6800  233.9260 C   0  0  0  0  0  0  0  0  0  0  0  0
  -18.5840   75.5520  234.9460 O   0  5  0  0  0  0  0  0  0  0  0  0
  -16.6760   75.8130  234.0770 O   0  0  0  0  0  0  0  0  0  0  0  0
   -7.6925   63.6414  236.0765 H   0  0  0  0  0  0  0  0  0  0  0  0
   -7.9897   65.2562  236.1926 H   0  0  0  0  0  0  0  0  0  0  0  0
   -7.0374   64.6797  234.9800 H   0  0  0  0  0  0  0  0  0  0  0  0
   -8.8426   63.5129  233.9738 H   0  0  0  0  0  0  0  0  0  0  0  0
  -11.1476   63.8191  234.8306 H   0  0  0  0  0  0  0  0  0  0  0  0
  -10.4900   64.7041  236.2487 H   0  0  0  0  0  0  0  0  0  0  0  0
  -10.0847   62.9713  236.0045 H   0  0  0  0  0  0  0  0  0  0  0  0
   -9.9875   66.5448  235.5060 H   0  0  0  0  0  0  0  0  0  0  0  0
   -9.3794   67.9596  232.9457 H   0  0  0  0  0  0  0  0  0  0  0  0
  -11.7462   68.4525  234.7804 H   0  0  0  0  0  0  0  0  0  0  0  0
  -11.8042   67.5540  233.2261 H   0  0  0  0  0  0  0  0  0  0  0  0
  -11.0485   70.6327  233.4077 H   0  0  0  0  0  0  0  0  0  0  0  0
   -7.3179   70.0177  236.4476 H   0  0  0  0  0  0  0  0  0  0  0  0
   -5.0539   69.8237  235.9039 H   0  0  0  0  0  0  0  0  0  0  0  0
   -5.2667   70.7923  234.4061 H   0  0  0  0  0  0  0  0  0  0  0  0
   -5.6431   67.8290  234.8526 H   0  0  0  0  0  0  0  0  0  0  0  0
   -4.8802   68.6926  233.4746 H   0  0  0  0  0  0  0  0  0  0  0  0
   -6.9837   69.4100  232.6141 H   0  0  0  0  0  0  0  0  0  0  0  0
   -7.3599   67.7568  233.2075 H   0  0  0  0  0  0  0  0  0  0  0  0
   -8.2638   74.0733  235.4814 H   0  0  0  0  0  0  0  0  0  0  0  0
   -7.4723   74.7376  237.6087 H   0  0  0  0  0  0  0  0  0  0  0  0
   -6.3188   75.6644  236.5902 H   0  0  0  0  0  0  0  0  0  0  0  0
   -5.4432   73.9445  238.4482 H   0  0  0  0  0  0  0  0  0  0  0  0
   -4.6139   74.0941  236.8618 H   0  0  0  0  0  0  0  0  0  0  0  0
   -5.0467   71.8177  236.7349 H   0  0  0  0  0  0  0  0  0  0  0  0
   -6.4216   71.9142  237.8869 H   0  0  0  0  0  0  0  0  0  0  0  0
   -8.0814   75.3350  233.6952 H   0  0  0  0  0  0  0  0  0  0  0  0
   -5.4151   75.9168  232.5671 H   0  0  0  0  0  0  0  0  0  0  0  0
   -6.2636   73.9478  231.3251 H   0  0  0  0  0  0  0  0  0  0  0  0
   -6.0990   75.4115  230.2968 H   0  0  0  0  0  0  0  0  0  0  0  0
   -8.4326   74.1992  229.7667 H   0  0  0  0  0  0  0  0  0  0  0  0
   -5.6397   77.6180  230.8020 H   0  0  0  0  0  0  0  0  0  0  0  0
   -6.7886   79.9004  232.0255 H   0  0  0  0  0  0  0  0  0  0  0  0
   -5.9131   81.1650  230.2006 H   0  0  0  0  0  0  0  0  0  0  0  0
   -5.8150   79.7043  229.1598 H   0  0  0  0  0  0  0  0  0  0  0  0
   -4.0029   78.8312  230.5844 H   0  0  0  0  0  0  0  0  0  0  0  0
   -2.2577   80.4184  229.7983 H   0  0  0  0  0  0  0  0  0  0  0  0
   -3.5410   81.6222  229.4370 H   0  0  0  0  0  0  0  0  0  0  0  0
   -3.4914   80.0660  228.5411 H   0  0  0  0  0  0  0  0  0  0  0  0
   -4.4754   80.0001  232.7023 H   0  0  0  0  0  0  0  0  0  0  0  0
   -3.9689   81.5484  231.9456 H   0  0  0  0  0  0  0  0  0  0  0  0
   -2.7800   80.2175  232.1502 H   0  0  0  0  0  0  0  0  0  0  0  0
   -8.2023   77.7548  229.6203 H   0  0  0  0  0  0  0  0  0  0  0  0
  -10.1710   79.8619  228.9477 H   0  0  0  0  0  0  0  0  0  0  0  0
  -10.7193   78.6746  226.9810 H   0  0  0  0  0  0  0  0  0  0  0  0
   -9.9934   77.1494  227.5922 H   0  0  0  0  0  0  0  0  0  0  0  0
   -8.9617   80.6359  226.2473 H   0  0  0  0  0  0  0  0  0  0  0  0
   -6.4818   80.5448  225.4507 H   0  0  0  0  0  0  0  0  0  0  0  0
   -7.8582   75.8779  227.7593 H   0  0  0  0  0  0  0  0  0  0  0  0
   -4.4160   78.6594  225.4584 H   0  0  0  0  0  0  0  0  0  0  0  0
   -5.5994   74.9857  227.3090 H   0  0  0  0  0  0  0  0  0  0  0  0
   -3.9001   76.3677  226.1833 H   0  0  0  0  0  0  0  0  0  0  0  0
  -10.0901   77.5510  231.3165 H   0  0  0  0  0  0  0  0  0  0  0  0
  -12.2774   75.8792  230.6746 H   0  0  0  0  0  0  0  0  0  0  0  0
  -10.5990   75.4009  232.4024 H   0  0  0  0  0  0  0  0  0  0  0  0
  -12.2855   75.2017  232.9880 H   0  0  0  0  0  0  0  0  0  0  0  0
  -12.1480   76.9690  234.4317 H   0  0  0  0  0  0  0  0  0  0  0  0
  -10.9599   77.8538  233.4157 H   0  0  0  0  0  0  0  0  0  0  0  0
   -9.0168   76.9373  236.3446 H   0  0  0  0  0  0  0  0  0  0  0  0
  -10.2189   78.0826  235.8515 H   0  0  0  0  0  0  0  0  0  0  0  0
  -12.2911   79.0408  232.1799 H   0  0  0  0  0  0  0  0  0  0  0  0
  -14.8674   79.1262  233.2092 H   0  0  0  0  0  0  0  0  0  0  0  0
  -13.3036   80.9358  233.5736 H   0  0  0  0  0  0  0  0  0  0  0  0
  -12.7761   82.6224  231.8421 H   0  0  0  0  0  0  0  0  0  0  0  0
  -13.6411   81.6304  230.6197 H   0  0  0  0  0  0  0  0  0  0  0  0
  -12.1577   80.9930  231.4070 H   0  0  0  0  0  0  0  0  0  0  0  0
  -15.7165   81.4087  233.7378 H   0  0  0  0  0  0  0  0  0  0  0  0
  -15.7124   81.9591  232.0279 H   0  0  0  0  0  0  0  0  0  0  0  0
  -14.7618   82.8539  233.2618 H   0  0  0  0  0  0  0  0  0  0  0  0
  -13.9954   79.0675  229.7842 H   0  0  0  0  0  0  0  0  0  0  0  0
  -16.6771   79.9852  229.0153 H   0  0  0  0  0  0  0  0  0  0  0  0
  -15.8621   79.3573  226.6762 H   0  0  0  0  0  0  0  0  0  0  0  0
  -14.2872   78.9551  227.4409 H   0  0  0  0  0  0  0  0  0  0  0  0
  -14.2985   81.3039  228.4076 H   0  0  0  0  0  0  0  0  0  0  0  0
  -13.5031   82.2703  226.2698 H   0  0  0  0  0  0  0  0  0  0  0  0
  -14.2778   80.9169  225.3783 H   0  0  0  0  0  0  0  0  0  0  0  0
  -12.9183   80.5883  226.5054 H   0  0  0  0  0  0  0  0  0  0  0  0
  -16.7111   81.7438  228.1398 H   0  0  0  0  0  0  0  0  0  0  0  0
  -16.5330   81.6523  226.3547 H   0  0  0  0  0  0  0  0  0  0  0  0
  -15.7209   82.9659  227.2722 H   0  0  0  0  0  0  0  0  0  0  0  0
  -15.5004   76.9741  229.9715 H   0  0  0  0  0  0  0  0  0  0  0  0
  -17.6934   75.6849  228.3989 H   0  0  0  0  0  0  0  0  0  0  0  0
  -15.4549   75.0033  227.6354 H   0  0  0  0  0  0  0  0  0  0  0  0
  -16.4088   73.6452  228.3225 H   0  0  0  0  0  0  0  0  0  0  0  0
  -13.8623   73.4688  229.1614 H   0  0  0  0  0  0  0  0  0  0  0  0
  -17.2210   76.8376  231.3348 H   0  0  0  0  0  0  0  0  0  0  0  0
  -18.9778   74.6643  232.3992 H   0  0  0  0  0  0  0  0  0  0  0  0
  -19.3473   76.4155  232.5535 H   0  0  0  0  0  0  0  0  0  0  0  0
  1  2  1  0  0  0  0
  1 89  1  0  0  0  0
  1 90  1  0  0  0  0
  1 91  1  0  0  0  0
  2  3  1  0  0  0  0
  2  5  1  0  0  0  0
  2 92  1  6  0  0  0
  3  4  2  0  0  0  0
  3  6  1  0  0  0  0
  5 93  1  0  0  0  0
  5 94  1  0  0  0  0
  5 95  1  0  0  0  0
  6  7  1  0  0  0  0
  6 96  1  0  0  0  0
  7  8  1  0  0  0  0
  7 10  1  0  0  0  0
  7 97  1  6  0  0  0
  8  9  2  0  0  0  0
  8 12  1  0  0  0  0
 10 11  1  0  0  0  0
 10 98  1  0  0  0  0
 10 99  1  0  0  0  0
 11100  1  0  0  0  0
 12 13  1  0  0  0  0
 12 18  1  0  0  0  0
 13 14  1  0  0  0  0
 13 16  1  0  0  0  0
 13101  1  1  0  0  0
 14 15  2  0  0  0  0
 14 19  1  0  0  0  0
 16 17  1  0  0  0  0
 16102  1  0  0  0  0
 16103  1  0  0  0  0
 17 18  1  0  0  0  0
 17104  1  0  0  0  0
 17105  1  0  0  0  0
 18106  1  0  0  0  0
 18107  1  0  0  0  0
 19 20  1  0  0  0  0
 19 25  1  0  0  0  0
 20 21  1  0  0  0  0
 20 23  1  0  0  0  0
 20108  1  6  0  0  0
 21 22  2  0  0  0  0
 21 26  1  0  0  0  0
 23 24  1  0  0  0  0
 23109  1  0  0  0  0
 23110  1  0  0  0  0
 24 25  1  0  0  0  0
 24111  1  0  0  0  0
 24112  1  0  0  0  0
 25113  1  0  0  0  0
 25114  1  0  0  0  0
 26 27  1  0  0  0  0
 26115  1  0  0  0  0
 27 28  1  0  0  0  0
 27 30  1  0  0  0  0
 27116  1  1  0  0  0
 28 29  2  0  0  0  0
 28 32  1  0  0  0  0
 30 31  1  0  0  0  0
 30117  1  0  0  0  0
 30118  1  0  0  0  0
 31119  1  0  0  0  0
 32 33  1  0  0  0  0
 32120  1  0  0  0  0
 33 34  1  0  0  0  0
 33 36  1  0  0  0  0
 33121  1  1  0  0  0
 34 35  2  0  0  0  0
 34 40  1  0  0  0  0
 36 37  1  0  0  0  0
 36122  1  0  0  0  0
 36123  1  0  0  0  0
 37 38  1  0  0  0  0
 37 39  1  0  0  0  0
 37124  1  0  0  0  0
 38125  1  0  0  0  0
 38126  1  0  0  0  0
 38127  1  0  0  0  0
 39128  1  0  0  0  0
 39129  1  0  0  0  0
 39130  1  0  0  0  0
 40 41  1  0  0  0  0
 40131  1  0  0  0  0
 41 42  1  0  0  0  0
 41 44  1  0  0  0  0
 41132  1  6  0  0  0
 42 43  2  0  0  0  0
 42 54  1  0  0  0  0
 44 45  1  0  0  0  0
 44133  1  0  0  0  0
 44134  1  0  0  0  0
 45 46  2  0  0  0  0
 45 47  1  0  0  0  0
 46 48  1  0  0  0  0
 46135  1  0  0  0  0
 47 49  2  0  0  0  0
 47 50  1  0  0  0  0
 48 49  1  0  0  0  0
 48136  1  0  0  0  0
 49 51  1  0  0  0  0
 50 52  2  0  0  0  0
 50137  1  0  0  0  0
 51 53  2  0  0  0  0
 51138  1  0  0  0  0
 52 53  1  0  0  0  0
 52139  1  0  0  0  0
 53140  1  0  0  0  0
 54 55  1  0  0  0  0
 54141  1  0  0  0  0
 55 56  1  0  0  0  0
 55 58  1  0  0  0  0
 55142  1  6  0  0  0
 56 57  2  0  0  0  0
 56 63  1  0  0  0  0
 58 59  1  0  0  0  0
 58143  1  0  0  0  0
 58144  1  0  0  0  0
 59 60  1  0  0  0  0
 59145  1  0  0  0  0
 59146  1  0  0  0  0
 60 61  2  0  0  0  0
 60 62  1  0  0  0  0
 62147  1  0  0  0  0
 62148  1  0  0  0  0
 63 64  1  0  0  0  0
 63149  1  0  0  0  0
 64 65  1  0  0  0  0
 64 67  1  0  0  0  0
 64150  1  1  0  0  0
 65 66  2  0  0  0  0
 65 70  1  0  0  0  0
 67 68  1  0  0  0  0
 67 69  1  0  0  0  0
 67151  1  0  0  0  0
 68152  1  0  0  0  0
 68153  1  0  0  0  0
 68154  1  0  0  0  0
 69155  1  0  0  0  0
 69156  1  0  0  0  0
 69157  1  0  0  0  0
 70 71  1  0  0  0  0
 70158  1  0  0  0  0
 71 72  1  0  0  0  0
 71 74  1  0  0  0  0
 71159  1  1  0  0  0
 72 73  2  0  0  0  0
 72 78  1  0  0  0  0
 74 75  1  0  0  0  0
 74160  1  0  0  0  0
 74161  1  0  0  0  0
 75 76  1  0  0  0  0
 75 77  1  0  0  0  0
 75162  1  0  0  0  0
 76163  1  0  0  0  0
 76164  1  0  0  0  0
 76165  1  0  0  0  0
 77166  1  0  0  0  0
 77167  1  0  0  0  0
 77168  1  0  0  0  0
 78 79  1  0  0  0  0
 78169  1  0  0  0  0
 79 80  1  0  0  0  0
 79 82  1  0  0  0  0
 79170  1  6  0  0  0
 80 81  2  0  0  0  0
 80 84  1  0  0  0  0
 82 83  1  0  0  0  0
 82171  1  0  0  0  0
 82172  1  0  0  0  0
 83173  1  0  0  0  0
 84 85  1  0  0  0  0
 84174  1  0  0  0  0
 85 86  1  0  0  0  0
 85175  1  0  0  0  0
 85176  1  0  0  0  0
 86 87  1  0  0  0  0
 86 88  2  0  0  0  0
M  CHG  2   1   1  87  -1
M  END
