4tww_ligand
 OpenBabel08222323353D

 60 63  0  0  1  0  0  0  0  0999 V2000
    1.6270   18.8580  -11.4620 C   0  0  0  0  0  0  0  0  0  0  0  0
    1.8450   19.3870  -12.7420 C   0  0  0  0  0  0  0  0  0  0  0  0
    2.0390   20.7540  -12.9010 C   0  0  0  0  0  0  0  0  0  0  0  0
    2.0270   21.5950  -11.7770 C   0  0  0  0  0  0  0  0  0  0  0  0
    1.8160   21.0510  -10.4930 C   0  0  0  0  0  0  0  0  0  0  0  0
    1.6180   19.6780  -10.3350 C   0  0  0  0  0  0  0  0  0  0  0  0
    3.5490   17.1090  -10.0730 C   0  0  0  0  0  0  0  0  0  0  0  0
   -1.0140   15.4850   -5.4380 O   0  0  0  0  0  0  0  0  0  0  0  0
   -0.1980   15.3360   -6.3650 C   0  0  0  0  0  0  0  0  0  0  0  0
   -0.4100   14.3510   -7.5480 C   0  0  2  0  0  0  0  0  0  0  0  0
   -1.0440   13.0350   -7.1020 C   0  0  0  0  0  0  0  0  0  0  0  0
   -2.0920   12.4390   -8.0350 C   0  0  0  0  0  0  0  0  0  0  0  0
   -2.5760   11.1880   -7.9040 N   0  0  0  0  0  0  0  0  0  0  0  0
   -3.5330   10.9820   -8.8230 C   0  0  0  0  0  0  0  0  0  0  0  0
   -3.6390   12.1030   -9.5770 N   0  0  0  0  0  0  0  0  0  0  0  0
   -2.7640   13.0250   -9.1110 C   0  0  0  0  0  0  0  0  0  0  0  0
    0.8250   13.9830   -8.3250 N   0  3  0  0  0  0  0  0  0  0  0  0
    1.5170   15.1900   -8.8070 C   0  0  0  0  0  0  0  0  0  0  0  0
    1.8680   15.2340  -10.2820 C   0  0  2  0  0  0  0  0  0  0  0  0
    3.0230   14.2740  -10.6420 C   0  0  0  0  0  0  0  0  0  0  0  0
    4.3810   14.7090  -10.1410 C   0  0  1  0  0  0  0  0  0  0  0  0
    5.4540   13.8000  -10.7220 C   0  0  0  0  0  0  0  0  0  0  0  0
    6.8290   14.1590  -10.1880 C   0  0  0  0  0  0  0  0  0  0  0  0
    7.1470   15.6400  -10.4350 C   0  0  0  0  0  0  0  0  0  0  0  0
    6.0260   16.5770   -9.9770 C   0  0  0  0  0  0  0  0  0  0  0  0
    4.6530   16.1530  -10.5390 C   0  0  2  0  0  0  0  0  0  0  0  0
    2.2440   16.6440  -10.6000 N   0  0  0  0  0  0  0  0  0  0  0  0
    1.4300   17.3840  -11.3570 C   0  0  0  0  0  0  0  0  0  0  0  0
    0.5540   16.8990  -12.0500 O   0  0  0  0  0  0  0  0  0  0  0  0
    2.2990   23.4690  -12.0190 Br  0  0  0  0  0  0  0  0  0  0  0  0
    1.8622   18.7316  -13.6053 H   0  0  0  0  0  0  0  0  0  0  0  0
    2.1990   21.1693  -13.8894 H   0  0  0  0  0  0  0  0  0  0  0  0
    1.8075   21.7012   -9.6257 H   0  0  0  0  0  0  0  0  0  0  0  0
    1.4595   19.2556   -9.3494 H   0  0  0  0  0  0  0  0  0  0  0  0
    3.7571   18.1217  -10.4486 H   0  0  0  0  0  0  0  0  0  0  0  0
    3.5166   17.1250   -8.9736 H   0  0  0  0  0  0  0  0  0  0  0  0
    0.7154   15.9286   -6.3465 H   0  0  0  0  0  0  0  0  0  0  0  0
   -1.1024   14.8476   -8.2437 H   0  0  0  0  0  0  0  0  0  0  0  0
   -1.5229   13.2074   -6.1269 H   0  0  0  0  0  0  0  0  0  0  0  0
   -0.2372   12.2959   -6.9888 H   0  0  0  0  0  0  0  0  0  0  0  0
   -4.1211   10.0731   -8.9417 H   0  0  0  0  0  0  0  0  0  0  0  0
   -4.2795   12.2322  -10.3732 H   0  0  0  0  0  0  0  0  0  0  0  0
   -2.6128   14.0308   -9.5002 H   0  0  0  0  0  0  0  0  0  0  0  0
    0.5617   13.4151   -9.1151 H   0  0  0  0  0  0  0  0  0  0  0  0
    1.4476   13.4609   -7.7285 H   0  0  0  0  0  0  0  0  0  0  0  0
    2.4541   15.2856   -8.2390 H   0  0  0  0  0  0  0  0  0  0  0  0
    0.8690   16.0528   -8.5933 H   0  0  0  0  0  0  0  0  0  0  0  0
    0.9834   14.9489  -10.8704 H   0  0  0  0  0  0  0  0  0  0  0  0
    3.0718   14.1914  -11.7378 H   0  0  0  0  0  0  0  0  0  0  0  0
    2.7973   13.2881  -10.2096 H   0  0  0  0  0  0  0  0  0  0  0  0
    4.3997   14.6316   -9.0439 H   0  0  0  0  0  0  0  0  0  0  0  0
    5.4567   13.9033  -11.8171 H   0  0  0  0  0  0  0  0  0  0  0  0
    5.2257   12.7583  -10.4525 H   0  0  0  0  0  0  0  0  0  0  0  0
    7.5842   13.5399  -10.6944 H   0  0  0  0  0  0  0  0  0  0  0  0
    6.8576   13.9608   -9.1064 H   0  0  0  0  0  0  0  0  0  0  0  0
    7.3096   15.7886  -11.5127 H   0  0  0  0  0  0  0  0  0  0  0  0
    8.0651   15.8976   -9.8866 H   0  0  0  0  0  0  0  0  0  0  0  0
    6.2518   17.5966  -10.3227 H   0  0  0  0  0  0  0  0  0  0  0  0
    5.9792   16.5643   -8.8781 H   0  0  0  0  0  0  0  0  0  0  0  0
    4.6968   16.2025  -11.6370 H   0  0  0  0  0  0  0  0  0  0  0  0
  1  2  2  0  0  0  0
  1  6  1  0  0  0  0
  2  3  1  0  0  0  0
  2 31  1  0  0  0  0
  3  4  2  0  0  0  0
  3 32  1  0  0  0  0
  4 30  1  0  0  0  0
  5  4  1  0  0  0  0
  5 33  1  0  0  0  0
  6  5  2  0  0  0  0
  6 34  1  0  0  0  0
  7 26  1  0  0  0  0
  7 35  1  0  0  0  0
  7 36  1  0  0  0  0
  9  8  2  0  0  0  0
  9 37  1  0  0  0  0
 10  9  1  0  0  0  0
 10 11  1  0  0  0  0
 10 38  1  6  0  0  0
 11 12  1  0  0  0  0
 11 39  1  0  0  0  0
 11 40  1  0  0  0  0
 12 13  1  0  0  0  0
 12 16  2  0  0  0  0
 13 14  2  0  0  0  0
 14 41  1  0  0  0  0
 15 14  1  0  0  0  0
 15 42  1  0  0  0  0
 16 15  1  0  0  0  0
 16 43  1  0  0  0  0
 17 10  1  0  0  0  0
 17 44  1  0  0  0  0
 17 45  1  0  0  0  0
 18 17  1  0  0  0  0
 18 46  1  0  0  0  0
 18 47  1  0  0  0  0
 19 18  1  0  0  0  0
 19 20  1  0  0  0  0
 19 48  1  6  0  0  0
 20 21  1  0  0  0  0
 20 49  1  0  0  0  0
 20 50  1  0  0  0  0
 21 22  1  0  0  0  0
 21 51  1  1  0  0  0
 22 23  1  0  0  0  0
 22 52  1  0  0  0  0
 22 53  1  0  0  0  0
 23 54  1  0  0  0  0
 23 55  1  0  0  0  0
 24 23  1  0  0  0  0
 24 56  1  0  0  0  0
 24 57  1  0  0  0  0
 25 24  1  0  0  0  0
 25 58  1  0  0  0  0
 25 59  1  0  0  0  0
 26 21  1  0  0  0  0
 26 25  1  0  0  0  0
 26 60  1  6  0  0  0
 27  7  1  0  0  0  0
 27 19  1  0  0  0  0
 27 28  1  0  0  0  0
 28  1  1  0  0  0  0
 28 29  2  0  0  0  0
M  CHG  1  17   1
M  END
