4txs_ligand
 OpenBabel08222323353D

 17 17  0  0  0  0  0  0  0  0999 V2000
   -2.7260  -22.4590   19.9390 C   0  0  0  0  0  0  0  0  0  0  0  0
   -2.6970  -24.7910   18.3650 C   0  0  0  0  0  0  0  0  0  0  0  0
   -3.7440  -24.5300   19.2390 C   0  0  0  0  0  0  0  0  0  0  0  0
   -1.6700  -22.7230   19.0740 C   0  0  0  0  0  0  0  0  0  0  0  0
   -4.9800  -23.2400   20.9410 C   0  0  0  0  0  0  0  0  0  0  0  0
   -5.3170  -21.8460   21.3190 C   0  0  0  0  0  0  0  0  0  0  0  0
   -0.6220  -24.1920   17.3910 O   0  0  0  0  0  0  0  0  0  0  0  0
   -5.4720  -20.7580   21.6180 N   0  0  0  0  0  0  0  0  0  0  0  0
   -1.6490  -23.8890   18.2780 C   0  0  0  0  0  0  0  0  0  0  0  0
   -3.7820  -23.3720   20.0240 C   0  0  0  0  0  0  0  0  0  0  0  0
   -2.7308  -21.5568   20.5400 H   0  0  0  0  0  0  0  0  0  0  0  0
   -2.6996  -25.6893   17.7583 H   0  0  0  0  0  0  0  0  0  0  0  0
   -4.5558  -25.2442   19.3155 H   0  0  0  0  0  0  0  0  0  0  0  0
   -0.8471  -22.0203   19.0095 H   0  0  0  0  0  0  0  0  0  0  0  0
   -5.8514  -23.6779   20.4322 H   0  0  0  0  0  0  0  0  0  0  0  0
   -4.7711  -23.8043   21.8618 H   0  0  0  0  0  0  0  0  0  0  0  0
   -0.8095  -25.0184   16.9616 H   0  0  0  0  0  0  0  0  0  0  0  0
  1  4  2  0  0  0  0
  1 11  1  0  0  0  0
  2  9  2  0  0  0  0
  2 12  1  0  0  0  0
  3  2  1  0  0  0  0
  3 13  1  0  0  0  0
  4  9  1  0  0  0  0
  4 14  1  0  0  0  0
  5  6  1  0  0  0  0
  5 10  1  0  0  0  0
  5 15  1  0  0  0  0
  5 16  1  0  0  0  0
  6  8  3  0  0  0  0
  7 17  1  0  0  0  0
  9  7  1  0  0  0  0
 10  1  1  0  0  0  0
 10  3  2  0  0  0  0
M  END
