4ty1_ligand
 OpenBabel08222323353D

 50 54  0  0  0  0  0  0  0  0999 V2000
  -19.4360   29.0350    3.6560 C   0  0  0  0  0  0  0  0  0  0  0  0
  -19.9690   30.2770    2.8890 C   0  0  0  0  0  0  0  0  0  0  0  0
  -21.4510   30.5390    3.2100 C   0  0  0  0  0  0  0  0  0  0  0  0
  -19.1400   31.5100    3.2840 C   0  0  0  0  0  0  0  0  0  0  0  0
  -19.8540   30.0000    1.4780 N   0  0  0  0  0  0  0  0  0  0  0  0
  -20.1830   30.9760    0.5000 C   0  0  0  0  0  0  0  0  0  0  0  0
  -20.0560   30.7910   -0.8210 N   0  0  0  0  0  0  0  0  0  0  0  0
  -20.4530   31.9170   -1.4510 N   0  0  0  0  0  0  0  0  0  0  0  0
  -20.8450   32.7980   -0.5080 C   0  0  0  0  0  0  0  0  0  0  0  0
  -20.6660   32.2240    0.7220 O   0  0  0  0  0  0  0  0  0  0  0  0
  -21.2910   34.0960   -0.7700 C   0  0  0  0  0  0  0  0  0  0  0  0
  -21.4080   34.5210   -2.1090 C   0  0  0  0  0  0  0  0  0  0  0  0
  -21.8300   35.8110   -2.3990 C   0  0  0  0  0  0  0  0  0  0  0  0
  -22.1280   36.7060   -1.3310 C   0  0  0  0  0  0  0  0  0  0  0  0
  -22.5580   38.0180   -1.3690 N   0  0  0  0  0  0  0  0  0  0  0  0
  -22.7270   38.4600   -0.0910 C   0  0  0  0  0  0  0  0  0  0  0  0
  -22.3760   37.4440    0.8100 C   0  0  0  0  0  0  0  0  0  0  0  0
  -22.4890   37.5240    2.2050 C   0  0  0  0  0  0  0  0  0  0  0  0
  -22.9880   38.6450    2.8170 N   0  0  0  0  0  0  0  0  0  0  0  0
  -23.1560   38.7010    4.1770 C   0  0  0  0  0  0  0  0  0  0  0  0
  -22.8620   37.5720    4.9520 C   0  0  0  0  0  0  0  0  0  0  0  0
  -22.3870   36.4250    4.2930 C   0  0  0  0  0  0  0  0  0  0  0  0
  -22.2260   36.4290    2.9470 N   0  0  0  0  0  0  0  0  0  0  0  0
  -21.9910   35.1510    5.0140 C   0  0  0  0  0  0  0  0  0  0  0  0
  -22.4150   33.6930    4.9620 C   0  0  0  0  0  0  0  0  0  0  0  0
  -21.1130   34.1220    4.3230 C   0  0  0  0  0  0  0  0  0  0  0  0
  -22.0110   36.3120   -0.0060 C   0  0  0  0  0  0  0  0  0  0  0  0
  -21.5700   34.9800    0.2820 C   0  0  0  0  0  0  0  0  0  0  0  0
  -19.5096   29.2134    4.7389 H   0  0  0  0  0  0  0  0  0  0  0  0
  -18.3847   28.8594    3.3840 H   0  0  0  0  0  0  0  0  0  0  0  0
  -20.0363   28.1531    3.3881 H   0  0  0  0  0  0  0  0  0  0  0  0
  -21.7963   31.4223    2.6526 H   0  0  0  0  0  0  0  0  0  0  0  0
  -21.5663   30.7183    4.2891 H   0  0  0  0  0  0  0  0  0  0  0  0
  -22.0498   29.6638    2.9176 H   0  0  0  0  0  0  0  0  0  0  0  0
  -18.0795   31.3271    3.0562 H   0  0  0  0  0  0  0  0  0  0  0  0
  -19.2561   31.7002    4.3612 H   0  0  0  0  0  0  0  0  0  0  0  0
  -19.4911   32.3849    2.7172 H   0  0  0  0  0  0  0  0  0  0  0  0
  -19.5256   29.0727    1.1726 H   0  0  0  0  0  0  0  0  0  0  0  0
  -21.1674   33.8376   -2.9153 H   0  0  0  0  0  0  0  0  0  0  0  0
  -21.9320   36.1347   -3.4285 H   0  0  0  0  0  0  0  0  0  0  0  0
  -22.7235   38.5709   -2.2221 H   0  0  0  0  0  0  0  0  0  0  0  0
  -23.0808   39.4514    0.1882 H   0  0  0  0  0  0  0  0  0  0  0  0
  -23.5128   39.6101    4.6475 H   0  0  0  0  0  0  0  0  0  0  0  0
  -22.9967   37.5825    6.0275 H   0  0  0  0  0  0  0  0  0  0  0  0
  -21.7024   35.4881    6.0205 H   0  0  0  0  0  0  0  0  0  0  0  0
  -23.2632   33.3894    4.3308 H   0  0  0  0  0  0  0  0  0  0  0  0
  -22.4032   33.0842    5.8781 H   0  0  0  0  0  0  0  0  0  0  0  0
  -20.1551   33.8248    4.7747 H   0  0  0  0  0  0  0  0  0  0  0  0
  -21.0150   34.1301    3.2274 H   0  0  0  0  0  0  0  0  0  0  0  0
  -21.4523   34.6564    1.3099 H   0  0  0  0  0  0  0  0  0  0  0  0
  1  2  1  0  0  0  0
  1 29  1  0  0  0  0
  1 30  1  0  0  0  0
  1 31  1  0  0  0  0
  2  3  1  0  0  0  0
  2  4  1  0  0  0  0
  2  5  1  0  0  0  0
  3 32  1  0  0  0  0
  3 33  1  0  0  0  0
  3 34  1  0  0  0  0
  4 35  1  0  0  0  0
  4 36  1  0  0  0  0
  4 37  1  0  0  0  0
  5  6  1  0  0  0  0
  5 38  1  0  0  0  0
  6  7  2  0  0  0  0
  6 10  1  0  0  0  0
  7  8  1  0  0  0  0
  8  9  2  0  0  0  0
  9 10  1  0  0  0  0
  9 11  1  0  0  0  0
 11 12  2  0  0  0  0
 11 28  1  0  0  0  0
 12 13  1  0  0  0  0
 12 39  1  0  0  0  0
 13 14  2  0  0  0  0
 13 40  1  0  0  0  0
 14 15  1  0  0  0  0
 14 27  1  0  0  0  0
 15 16  1  0  0  0  0
 15 41  1  0  0  0  0
 16 17  2  0  0  0  0
 16 42  1  0  0  0  0
 17 18  1  0  0  0  0
 17 27  1  0  0  0  0
 18 19  2  0  0  0  0
 18 23  1  0  0  0  0
 19 20  1  0  0  0  0
 20 21  2  0  0  0  0
 20 43  1  0  0  0  0
 21 22  1  0  0  0  0
 21 44  1  0  0  0  0
 22 23  2  0  0  0  0
 22 24  1  0  0  0  0
 24 25  1  0  0  0  0
 24 26  1  0  0  0  0
 24 45  1  0  0  0  0
 25 26  1  0  0  0  0
 25 46  1  0  0  0  0
 25 47  1  0  0  0  0
 26 48  1  0  0  0  0
 26 49  1  0  0  0  0
 27 28  2  0  0  0  0
 28 50  1  0  0  0  0
M  END
