4tya_ligand
 OpenBabel08222323353D

 17 17  0  0  0  0  0  0  0  0999 V2000
   -0.2300   21.5770   45.6060 O   0  5  0  0  0  0  0  0  0  0  0  0
    0.4370   21.0140   42.8820 C   0  0  0  0  0  0  0  0  0  0  0  0
    1.3770   21.4600   43.8100 C   0  0  0  0  0  0  0  0  0  0  0  0
    2.8380   20.9420   39.1130 F   0  0  0  0  0  0  0  0  0  0  0  0
    3.5240   19.0860   39.9450 F   0  0  0  0  0  0  0  0  0  0  0  0
    1.5270   22.8040   45.7750 O   0  0  0  0  0  0  0  0  0  0  0  0
    0.8680   21.9640   45.1300 C   0  0  0  0  0  0  0  0  0  0  0  0
    3.0990   20.9190   42.2220 C   0  0  0  0  0  0  0  0  0  0  0  0
    2.1530   20.4690   41.2920 C   0  0  0  0  0  0  0  0  0  0  0  0
    2.7310   21.4150   43.4810 C   0  0  0  0  0  0  0  0  0  0  0  0
    1.4880   19.3120   39.3700 F   0  0  0  0  0  0  0  0  0  0  0  0
    2.5140   19.9440   39.9240 C   0  0  0  0  0  0  0  0  0  0  0  0
    0.8190   20.5210   41.6440 C   0  0  0  0  0  0  0  0  0  0  0  0
   -0.6165   21.0536   43.1343 H   0  0  0  0  0  0  0  0  0  0  0  0
    4.1502   20.8826   41.9598 H   0  0  0  0  0  0  0  0  0  0  0  0
    3.4831   21.7560   44.1832 H   0  0  0  0  0  0  0  0  0  0  0  0
    0.0648   20.1737   40.9471 H   0  0  0  0  0  0  0  0  0  0  0  0
  2 13  1  0  0  0  0
  2 14  1  0  0  0  0
  3  2  2  0  0  0  0
  3  7  1  0  0  0  0
  7  1  1  0  0  0  0
  7  6  2  0  0  0  0
  8 10  2  0  0  0  0
  8 15  1  0  0  0  0
  9  8  1  0  0  0  0
  9 12  1  0  0  0  0
  9 13  2  0  0  0  0
 10  3  1  0  0  0  0
 10 16  1  0  0  0  0
 12  4  1  0  0  0  0
 12  5  1  0  0  0  0
 12 11  1  0  0  0  0
 13 17  1  0  0  0  0
M  CHG  1   1  -1
M  END
