4tyo_ligand
 OpenBabel08222323353D

 43 46  0  0  1  0  0  0  0  0999 V2000
   16.1950   -0.4420    0.4930 O   0  5  0  0  0  0  0  0  0  0  0  0
   15.2710    0.2610    0.0190 C   0  0  0  0  0  0  0  0  0  0  0  0
   14.6490    0.0450   -1.0560 O   0  0  0  0  0  0  0  0  0  0  0  0
   14.8860    1.5200    0.8080 C   0  0  1  0  0  0  0  0  0  0  0  0
   15.9070    2.6120    0.4720 C   0  0  0  0  0  0  0  0  0  0  0  0
   15.5950    3.9630    1.0020 C   0  0  0  0  0  0  0  0  0  0  0  0
   14.7580    4.8180    0.4450 N   0  0  0  0  0  0  0  0  0  0  0  0
   14.7490    5.9250    1.2980 C   0  0  0  0  0  0  0  0  0  0  0  0
   14.0160    7.1120    1.2480 C   0  0  0  0  0  0  0  0  0  0  0  0
   14.1880    8.0630    2.2450 C   0  0  0  0  0  0  0  0  0  0  0  0
   15.0870    7.8030    3.2590 C   0  0  0  0  0  0  0  0  0  0  0  0
   15.2170    8.7150    4.2620 F   0  0  0  0  0  0  0  0  0  0  0  0
   15.8230    6.6390    3.3520 C   0  0  0  0  0  0  0  0  0  0  0  0
   15.6240    5.6950    2.3590 C   0  0  0  0  0  0  0  0  0  0  0  0
   16.1240    4.4250    2.1540 N   0  0  0  0  0  0  0  0  0  0  0  0
   13.5220    1.9390    0.5010 N   0  0  0  0  0  0  0  0  0  0  0  0
   12.7390    2.5010    1.4340 C   0  0  0  0  0  0  0  0  0  0  0  0
   13.1020    2.6040    2.6060 O   0  0  0  0  0  0  0  0  0  0  0  0
   11.4340    3.0850    0.9750 C   0  0  0  0  0  0  0  0  0  0  0  0
   10.8230    4.0300    1.8040 C   0  0  0  0  0  0  0  0  0  0  0  0
    9.6640    4.6460    1.4320 C   0  0  0  0  0  0  0  0  0  0  0  0
    9.0560    4.3670    0.1890 C   0  0  0  0  0  0  0  0  0  0  0  0
    7.8970    5.0440   -0.2660 C   0  0  0  0  0  0  0  0  0  0  0  0
    7.3690    4.7710   -1.4910 C   0  0  0  0  0  0  0  0  0  0  0  0
    7.9500    3.8220   -2.3150 C   0  0  0  0  0  0  0  0  0  0  0  0
    9.0670    3.1440   -1.9160 C   0  0  0  0  0  0  0  0  0  0  0  0
    9.6560    3.4020   -0.6560 C   0  0  0  0  0  0  0  0  0  0  0  0
   10.8460    2.7660   -0.2290 C   0  0  0  0  0  0  0  0  0  0  0  0
   14.9429    1.2992    1.8841 H   0  0  0  0  0  0  0  0  0  0  0  0
   15.9767    2.6854   -0.6233 H   0  0  0  0  0  0  0  0  0  0  0  0
   16.8802    2.3037    0.8816 H   0  0  0  0  0  0  0  0  0  0  0  0
   13.3184    7.2898    0.4376 H   0  0  0  0  0  0  0  0  0  0  0  0
   13.6275    8.9907    2.2271 H   0  0  0  0  0  0  0  0  0  0  0  0
   16.5227    6.4721    4.1630 H   0  0  0  0  0  0  0  0  0  0  0  0
   16.7806    3.9221    2.7679 H   0  0  0  0  0  0  0  0  0  0  0  0
   13.1641    1.8045   -0.4230 H   0  0  0  0  0  0  0  0  0  0  0  0
   11.2769    4.2772    2.7569 H   0  0  0  0  0  0  0  0  0  0  0  0
    9.2022    5.3618    2.1023 H   0  0  0  0  0  0  0  0  0  0  0  0
    7.4261    5.7867    0.3677 H   0  0  0  0  0  0  0  0  0  0  0  0
    6.4848    5.3020   -1.8245 H   0  0  0  0  0  0  0  0  0  0  0  0
    7.5145    3.6150   -3.2859 H   0  0  0  0  0  0  0  0  0  0  0  0
    9.5063    2.4009   -2.5716 H   0  0  0  0  0  0  0  0  0  0  0  0
   11.3033    2.0137   -0.8614 H   0  0  0  0  0  0  0  0  0  0  0  0
  1  2  1  0  0  0  0
  2  3  2  0  0  0  0
  2  4  1  0  0  0  0
  4  5  1  0  0  0  0
  4 16  1  0  0  0  0
  4 29  1  1  0  0  0
  5  6  1  0  0  0  0
  5 30  1  0  0  0  0
  5 31  1  0  0  0  0
  6  7  2  0  0  0  0
  6 15  1  0  0  0  0
  7  8  1  0  0  0  0
  8  9  2  0  0  0  0
  8 14  1  0  0  0  0
  9 10  1  0  0  0  0
  9 32  1  0  0  0  0
 10 11  2  0  0  0  0
 10 33  1  0  0  0  0
 11 12  1  0  0  0  0
 11 13  1  0  0  0  0
 13 14  2  0  0  0  0
 13 34  1  0  0  0  0
 14 15  1  0  0  0  0
 15 35  1  0  0  0  0
 16 17  1  0  0  0  0
 16 36  1  0  0  0  0
 17 18  2  0  0  0  0
 17 19  1  0  0  0  0
 19 20  2  0  0  0  0
 19 28  1  0  0  0  0
 20 21  1  0  0  0  0
 20 37  1  0  0  0  0
 21 22  2  0  0  0  0
 21 38  1  0  0  0  0
 22 23  1  0  0  0  0
 22 27  1  0  0  0  0
 23 24  2  0  0  0  0
 23 39  1  0  0  0  0
 24 25  1  0  0  0  0
 24 40  1  0  0  0  0
 25 26  2  0  0  0  0
 25 41  1  0  0  0  0
 26 27  1  0  0  0  0
 26 42  1  0  0  0  0
 27 28  2  0  0  0  0
 28 43  1  0  0  0  0
M  CHG  1   1  -1
M  END
