4u01_ligand
 OpenBabel08222323353D

 98104  0  0  1  0  0  0  0  0999 V2000
   56.9890   29.1580  -20.6080 C   0  0  0  0  0  0  0  0  0  0  0  0
   56.6930   28.2590  -19.5880 C   0  0  0  0  0  0  0  0  0  0  0  0
   56.1980   29.1770  -21.7520 C   0  0  0  0  0  0  0  0  0  0  0  0
   55.6100   27.3900  -19.7230 C   0  0  0  0  0  0  0  0  0  0  0  0
   55.1280   28.3070  -21.8760 C   0  0  0  0  0  0  0  0  0  0  0  0
   54.8290   27.4160  -20.8680 C   0  0  0  0  0  0  0  0  0  0  0  0
   57.1470   27.3170  -17.4410 C   0  0  0  0  0  0  0  0  0  0  0  0
   57.6370   30.4320  -23.3770 C   0  0  0  0  0  0  0  0  0  0  0  0
   54.2300   25.6790  -18.9200 O   0  0  0  0  0  0  0  0  0  0  0  0
   57.9390   27.3040  -16.2280 C   0  0  0  0  0  0  0  0  0  0  0  0
   58.4470   26.9630  -14.0860 C   0  0  0  0  0  0  0  0  0  0  0  0
   59.4420   27.8550  -14.4410 C   0  0  0  0  0  0  0  0  0  0  0  0
   57.3300   25.2030  -12.6100 C   0  0  0  0  0  0  0  0  0  0  0  0
   53.8140   24.6340  -18.0540 C   0  0  1  0  0  0  0  0  0  0  0  0
   52.2990   24.5150  -18.0130 C   0  0  0  0  0  0  0  0  0  0  0  0
   49.6950   22.1370  -16.0000 C   0  0  0  0  0  0  0  0  0  0  0  0
   48.3520   21.6910  -17.9670 C   0  0  0  0  0  0  0  0  0  0  0  0
   48.3110   20.4510  -18.8700 C   0  0  0  0  0  0  0  0  0  0  0  0
   49.3230   19.3320  -18.5800 C   0  0  0  0  0  0  0  0  0  0  0  0
   49.7840   18.8340  -19.9650 C   0  0  0  0  0  0  0  0  0  0  0  0
   50.6330   17.5790  -19.9520 C   0  0  0  0  0  0  0  0  0  0  0  0
   51.9570   17.5480  -20.2000 C   0  0  0  0  0  0  0  0  0  0  0  0
   55.2120   16.4500  -16.1010 O   0  0  0  0  0  0  0  0  0  0  0  0
   56.1570   17.3380  -16.7300 S   0  0  0  0  0  0  0  0  0  0  0  0
   57.0030   16.5340  -17.5820 O   0  0  0  0  0  0  0  0  0  0  0  0
   57.1720   18.1580  -15.4750 C   0  0  0  0  0  0  0  0  0  0  0  0
   58.2520   17.2370  -14.9130 C   0  0  0  0  0  0  0  0  0  0  0  0
   58.5810   18.5150  -15.7720 C   0  0  0  0  0  0  0  0  0  0  0  0
   56.4040   18.8440  -14.3430 C   0  0  0  0  0  0  0  0  0  0  0  0
   55.4050   18.4720  -17.6270 N   0  0  0  0  0  0  0  0  0  0  0  0
   54.8390   18.1560  -18.8290 C   0  0  0  0  0  0  0  0  0  0  0  0
   54.9430   17.0220  -19.2100 O   0  0  0  0  0  0  0  0  0  0  0  0
   54.1530   19.1400  -19.7450 C   0  0  1  0  0  0  0  0  0  0  0  0
   54.1620   18.8710  -21.1910 C   0  0  0  0  0  0  0  0  0  0  0  0
   52.8300   18.7740  -20.4940 C   0  0  1  0  0  0  0  0  0  0  0  0
   49.6680   22.1580  -17.4730 N   0  0  0  0  0  0  0  0  0  0  0  0
   50.7550   22.5940  -18.2470 C   0  0  0  0  0  0  0  0  0  0  0  0
   50.6760   22.5840  -19.4760 O   0  0  0  0  0  0  0  0  0  0  0  0
   52.0750   23.0610  -17.6220 C   0  0  1  0  0  0  0  0  0  0  0  0
   54.1980   20.5280  -19.3100 N   0  0  0  0  0  0  0  0  0  0  0  0
   53.1320   21.0650  -18.6440 C   0  0  0  0  0  0  0  0  0  0  0  0
   52.1770   20.3770  -18.3720 O   0  0  0  0  0  0  0  0  0  0  0  0
   53.1650   22.3750  -18.2790 N   0  0  0  0  0  0  0  0  0  0  0  0
   54.2760   23.2840  -18.5760 C   0  0  0  0  0  0  0  0  0  0  0  0
   55.3060   26.4960  -18.7200 C   0  0  0  0  0  0  0  0  0  0  0  0
   56.3960   30.0450  -22.7900 O   0  0  0  0  0  0  0  0  0  0  0  0
   58.0150   29.9890  -20.4840 F   0  0  0  0  0  0  0  0  0  0  0  0
   56.0810   26.4610  -17.5700 C   0  0  0  0  0  0  0  0  0  0  0  0
   57.4510   28.2270  -18.4310 N   0  0  0  0  0  0  0  0  0  0  0  0
   59.1900   28.2430  -15.9580 S   0  0  0  0  0  0  0  0  0  0  0  0
   57.6840   26.5690  -15.1410 N   0  0  0  0  0  0  0  0  0  0  0  0
   58.4410   26.2510  -12.7380 C   0  0  0  0  0  0  0  0  0  0  0  0
   58.3630   27.2790  -11.5940 C   0  0  0  0  0  0  0  0  0  0  0  0
   54.5204   28.3269  -22.7735 H   0  0  0  0  0  0  0  0  0  0  0  0
   53.9881   26.7395  -20.9699 H   0  0  0  0  0  0  0  0  0  0  0  0
   57.4499   31.1457  -24.1928 H   0  0  0  0  0  0  0  0  0  0  0  0
   58.1464   29.5430  -23.7772 H   0  0  0  0  0  0  0  0  0  0  0  0
   58.2717   30.9058  -22.6137 H   0  0  0  0  0  0  0  0  0  0  0  0
   60.2443   28.2208  -13.8019 H   0  0  0  0  0  0  0  0  0  0  0  0
   57.3840   24.7307  -11.6180 H   0  0  0  0  0  0  0  0  0  0  0  0
   57.4575   24.4364  -13.3885 H   0  0  0  0  0  0  0  0  0  0  0  0
   56.3510   25.6897  -12.7315 H   0  0  0  0  0  0  0  0  0  0  0  0
   54.2141   24.8183  -17.0461 H   0  0  0  0  0  0  0  0  0  0  0  0
   51.8595   24.7308  -18.9980 H   0  0  0  0  0  0  0  0  0  0  0  0
   51.8700   25.1957  -17.2630 H   0  0  0  0  0  0  0  0  0  0  0  0
   48.7343   21.7582  -15.6211 H   0  0  0  0  0  0  0  0  0  0  0  0
   49.8621   23.1563  -15.6217 H   0  0  0  0  0  0  0  0  0  0  0  0
   50.5087   21.4808  -15.6575 H   0  0  0  0  0  0  0  0  0  0  0  0
   47.7324   21.4719  -17.0849 H   0  0  0  0  0  0  0  0  0  0  0  0
   47.9038   22.5208  -18.5331 H   0  0  0  0  0  0  0  0  0  0  0  0
   48.4800   20.7892  -19.9030 H   0  0  0  0  0  0  0  0  0  0  0  0
   47.3044   20.0153  -18.7868 H   0  0  0  0  0  0  0  0  0  0  0  0
   48.8456   18.5169  -18.0164 H   0  0  0  0  0  0  0  0  0  0  0  0
   50.1767   19.7230  -18.0071 H   0  0  0  0  0  0  0  0  0  0  0  0
   50.3705   19.6362  -20.4367 H   0  0  0  0  0  0  0  0  0  0  0  0
   48.8874   18.6315  -20.5691 H   0  0  0  0  0  0  0  0  0  0  0  0
   50.1382   16.6355  -19.7263 H   0  0  0  0  0  0  0  0  0  0  0  0
   52.4460   16.5750  -20.1909 H   0  0  0  0  0  0  0  0  0  0  0  0
   58.3998   16.2305  -15.3314 H   0  0  0  0  0  0  0  0  0  0  0  0
   58.4647   17.2204  -13.8339 H   0  0  0  0  0  0  0  0  0  0  0  0
   59.0379   19.3953  -15.2964 H   0  0  0  0  0  0  0  0  0  0  0  0
   58.9730   18.4055  -16.7939 H   0  0  0  0  0  0  0  0  0  0  0  0
   57.1166   19.3056  -13.6436 H   0  0  0  0  0  0  0  0  0  0  0  0
   55.7959   18.0993  -13.8085 H   0  0  0  0  0  0  0  0  0  0  0  0
   55.7475   19.6202  -14.7631 H   0  0  0  0  0  0  0  0  0  0  0  0
   55.3573   19.4131  -17.2923 H   0  0  0  0  0  0  0  0  0  0  0  0
   54.6428   17.9561  -21.5676 H   0  0  0  0  0  0  0  0  0  0  0  0
   54.3455   19.6974  -21.8934 H   0  0  0  0  0  0  0  0  0  0  0  0
   52.1187   19.5882  -20.6968 H   0  0  0  0  0  0  0  0  0  0  0  0
   52.0793   22.9112  -16.5323 H   0  0  0  0  0  0  0  0  0  0  0  0
   55.0058   21.0868  -19.4976 H   0  0  0  0  0  0  0  0  0  0  0  0
   55.1917   22.9602  -18.0596 H   0  0  0  0  0  0  0  0  0  0  0  0
   54.4623   23.3291  -19.6592 H   0  0  0  0  0  0  0  0  0  0  0  0
   55.8461   25.7608  -16.7765 H   0  0  0  0  0  0  0  0  0  0  0  0
   59.3995   25.7193  -12.6456 H   0  0  0  0  0  0  0  0  0  0  0  0
   59.1696   28.0180  -11.7095 H   0  0  0  0  0  0  0  0  0  0  0  0
   58.4740   26.7629  -10.6290 H   0  0  0  0  0  0  0  0  0  0  0  0
   57.3897   27.7905  -11.6264 H   0  0  0  0  0  0  0  0  0  0  0  0
  1  3  1  0  0  0  0
  1 47  1  0  0  0  0
  2  1  2  0  0  0  0
  2 49  1  0  0  0  0
  3 46  1  0  0  0  0
  4  2  1  0  0  0  0
  4  6  2  0  0  0  0
  5  3  2  0  0  0  0
  5 54  1  0  0  0  0
  6  5  1  0  0  0  0
  6 55  1  0  0  0  0
  7 10  1  0  0  0  0
  7 48  1  0  0  0  0
  8 56  1  0  0  0  0
  8 57  1  0  0  0  0
  8 58  1  0  0  0  0
  9 45  1  0  0  0  0
 10 50  1  0  0  0  0
 10 51  2  0  0  0  0
 11 12  2  0  0  0  0
 11 52  1  0  0  0  0
 12 59  1  0  0  0  0
 13 60  1  0  0  0  0
 13 61  1  0  0  0  0
 13 62  1  0  0  0  0
 14  9  1  0  0  0  0
 14 44  1  0  0  0  0
 14 63  1  1  0  0  0
 15 14  1  0  0  0  0
 15 64  1  0  0  0  0
 15 65  1  0  0  0  0
 16 66  1  0  0  0  0
 16 67  1  0  0  0  0
 16 68  1  0  0  0  0
 17 18  1  0  0  0  0
 17 69  1  0  0  0  0
 17 70  1  0  0  0  0
 18 19  1  0  0  0  0
 18 71  1  0  0  0  0
 18 72  1  0  0  0  0
 19 20  1  0  0  0  0
 19 73  1  0  0  0  0
 19 74  1  0  0  0  0
 20 21  1  0  0  0  0
 20 75  1  0  0  0  0
 20 76  1  0  0  0  0
 21 22  2  0  0  0  0
 21 77  1  0  0  0  0
 22 35  1  0  0  0  0
 22 78  1  0  0  0  0
 24 23  2  0  0  0  0
 24 25  2  0  0  0  0
 24 26  1  0  0  0  0
 26 27  1  0  0  0  0
 26 28  1  0  0  0  0
 26 29  1  0  0  0  0
 27 79  1  0  0  0  0
 27 80  1  0  0  0  0
 28 27  1  0  0  0  0
 28 81  1  0  0  0  0
 28 82  1  0  0  0  0
 29 83  1  0  0  0  0
 29 84  1  0  0  0  0
 29 85  1  0  0  0  0
 30 24  1  0  0  0  0
 30 86  1  0  0  0  0
 31 30  1  0  0  0  0
 31 32  2  0  0  0  0
 33 31  1  1  0  0  0
 33 40  1  0  0  0  0
 34 33  1  0  0  0  0
 34 87  1  0  0  0  0
 34 88  1  0  0  0  0
 35 33  1  0  0  0  0
 35 34  1  0  0  0  0
 35 89  1  6  0  0  0
 36 16  1  0  0  0  0
 36 17  1  0  0  0  0
 37 36  1  0  0  0  0
 37 38  2  0  0  0  0
 37 39  1  0  0  0  0
 39 15  1  0  0  0  0
 39 43  1  0  0  0  0
 39 90  1  1  0  0  0
 40 41  1  0  0  0  0
 40 91  1  0  0  0  0
 41 42  2  0  0  0  0
 41 43  1  0  0  0  0
 43 44  1  0  0  0  0
 44 92  1  0  0  0  0
 44 93  1  0  0  0  0
 45  4  1  0  0  0  0
 45 48  2  0  0  0  0
 46  8  1  0  0  0  0
 48 94  1  0  0  0  0
 49  7  2  0  0  0  0
 50 12  1  0  0  0  0
 51 11  1  0  0  0  0
 52 13  1  0  0  0  0
 52 53  1  0  0  0  0
 52 95  1  0  0  0  0
 53 96  1  0  0  0  0
 53 97  1  0  0  0  0
 53 98  1  0  0  0  0
M  END
