4u0c_ligand
 OpenBabel08222323353D

123125  0  0  1  0  0  0  0  0999 V2000
   -6.9180   64.3960    0.2880 N   0  3  0  0  0  0  0  0  0  0  0  0
   -8.3890   64.6380    0.3410 C   0  0  2  0  0  0  0  0  0  0  0  0
   -8.7210   66.0700   -0.0910 C   0  0  0  0  0  0  0  0  0  0  0  0
   -7.9100   66.9800    0.1010 O   0  0  0  0  0  0  0  0  0  0  0  0
   -8.9180   64.3800    1.7550 C   0  0  0  0  0  0  0  0  0  0  0  0
   -8.3720   65.3030    2.6820 O   0  0  0  0  0  0  0  0  0  0  0  0
   -9.9190   66.2770   -0.6690 N   0  0  0  0  0  0  0  0  0  0  0  0
  -10.3100   67.6270   -1.0920 C   0  0  2  0  0  0  0  0  0  0  0  0
  -10.4810   68.5860    0.0880 C   0  0  0  0  0  0  0  0  0  0  0  0
  -10.8160   68.1550    1.1920 O   0  0  0  0  0  0  0  0  0  0  0  0
  -11.6420   67.4030   -1.8190 C   0  0  0  0  0  0  0  0  0  0  0  0
  -12.1780   66.1220   -1.2790 C   0  0  0  0  0  0  0  0  0  0  0  0
  -10.9830   65.2850   -0.9150 C   0  0  0  0  0  0  0  0  0  0  0  0
  -10.2460   69.8730   -0.1530 N   0  0  0  0  0  0  0  0  0  0  0  0
  -10.2570   70.8850    0.9110 C   0  0  2  0  0  0  0  0  0  0  0  0
  -11.6490   71.3800    1.3350 C   0  0  0  0  0  0  0  0  0  0  0  0
  -11.7590   72.1200    2.3110 O   0  0  0  0  0  0  0  0  0  0  0  0
   -9.4160   72.0910    0.4830 C   0  0  0  0  0  0  0  0  0  0  0  0
   -9.9730   72.7160   -0.6610 O   0  0  0  0  0  0  0  0  0  0  0  0
  -12.6970   70.9940    0.6090 N   0  0  0  0  0  0  0  0  0  0  0  0
  -14.0580   71.4540    0.9150 C   0  0  0  0  0  0  0  0  0  0  0  0
  -14.4010   72.7370    0.1810 C   0  0  0  0  0  0  0  0  0  0  0  0
  -13.5280   73.3800   -0.4000 O   0  0  0  0  0  0  0  0  0  0  0  0
  -15.6740   73.1220    0.2300 N   0  0  0  0  0  0  0  0  0  0  0  0
  -16.1830   74.2310   -0.5840 C   0  0  2  0  0  0  0  0  0  0  0  0
  -16.7000   75.4210    0.2400 C   0  0  0  0  0  0  0  0  0  0  0  0
  -17.3350   76.3230   -0.3050 O   0  0  0  0  0  0  0  0  0  0  0  0
  -17.2800   73.7390   -1.5650 C   0  0  0  0  0  0  0  0  0  0  0  0
  -16.7470   72.5910   -2.4120 C   0  0  0  0  0  0  0  0  0  0  0  0
  -18.5570   73.3330   -0.8270 C   0  0  0  0  0  0  0  0  0  0  0  0
  -16.4090   75.4350    1.5410 N   0  0  0  0  0  0  0  0  0  0  0  0
  -16.8620   76.5180    2.4160 C   0  0  2  0  0  0  0  0  0  0  0  0
  -15.8990   77.7020    2.3450 C   0  0  0  0  0  0  0  0  0  0  0  0
  -15.0320   77.8740    3.2000 O   0  0  0  0  0  0  0  0  0  0  0  0
  -17.0290   76.0250    3.8560 C   0  0  0  0  0  0  0  0  0  0  0  0
  -18.2200   75.1260    4.0480 C   0  0  0  0  0  0  0  0  0  0  0  0
  -19.3970   75.6150    4.5980 C   0  0  0  0  0  0  0  0  0  0  0  0
  -18.1680   73.7930    3.6690 C   0  0  0  0  0  0  0  0  0  0  0  0
  -20.4980   74.7890    4.7710 C   0  0  0  0  0  0  0  0  0  0  0  0
  -19.2650   72.9630    3.8360 C   0  0  0  0  0  0  0  0  0  0  0  0
  -20.4320   73.4620    4.3900 C   0  0  0  0  0  0  0  0  0  0  0  0
  -16.0760   78.5150    1.3090 N   0  0  0  0  0  0  0  0  0  0  0  0
  -15.2200   79.6750    1.0550 C   0  0  2  0  0  0  0  0  0  0  0  0
  -15.1350   80.6030    2.2610 C   0  0  0  0  0  0  0  0  0  0  0  0
  -14.0550   81.0950    2.5940 O   0  0  0  0  0  0  0  0  0  0  0  0
  -15.7340   80.4720   -0.1600 C   0  0  2  0  0  0  0  0  0  0  0  0
  -15.8850   79.5850   -1.2760 O   0  0  0  0  0  0  0  0  0  0  0  0
  -14.7710   81.6110   -0.5260 C   0  0  0  0  0  0  0  0  0  0  0  0
  -16.2780   80.8380    2.9020 N   0  0  0  0  0  0  0  0  0  0  0  0
  -16.3620   81.7000    4.0720 C   0  0  2  0  0  0  0  0  0  0  0  0
  -16.5180   80.8740    5.3460 C   0  0  0  0  0  0  0  0  0  0  0  0
  -17.2340   79.8720    5.3620 O   0  0  0  0  0  0  0  0  0  0  0  0
  -17.5370   82.6660    3.9220 C   0  0  0  0  0  0  0  0  0  0  0  0
  -17.4740   83.5060    2.6790 C   0  0  0  0  0  0  0  0  0  0  0  0
  -16.8020   84.7190    2.6820 C   0  0  0  0  0  0  0  0  0  0  0  0
  -18.0830   83.0820    1.5050 C   0  0  0  0  0  0  0  0  0  0  0  0
  -16.7420   85.4960    1.5360 C   0  0  0  0  0  0  0  0  0  0  0  0
  -18.0250   83.8510    0.3570 C   0  0  0  0  0  0  0  0  0  0  0  0
  -17.3530   85.0590    0.3730 C   0  0  0  0  0  0  0  0  0  0  0  0
  -15.8460   81.3020    6.4140 N   0  0  0  0  0  0  0  0  0  0  0  0
  -15.9350   80.6300    7.7110 C   0  0  0  0  0  0  0  0  0  0  0  0
  -15.0990   79.3670    7.7870 C   0  0  0  0  0  0  0  0  0  0  0  0
  -14.1230   79.2140    7.0560 O   0  5  0  0  0  0  0  0  0  0  0  0
   -6.7226   63.4499    0.5756 H   0  0  0  0  0  0  0  0  0  0  0  0
   -6.4492   65.0388    0.9069 H   0  0  0  0  0  0  0  0  0  0  0  0
   -6.5882   64.5357   -0.6542 H   0  0  0  0  0  0  0  0  0  0  0  0
   -8.8826   63.9405   -0.3517 H   0  0  0  0  0  0  0  0  0  0  0  0
   -8.6434   63.3596    2.0604 H   0  0  0  0  0  0  0  0  0  0  0  0
  -10.0135   64.4796    1.7522 H   0  0  0  0  0  0  0  0  0  0  0  0
   -8.7159   65.1207    3.5486 H   0  0  0  0  0  0  0  0  0  0  0  0
   -9.5594   68.0428   -1.7802 H   0  0  0  0  0  0  0  0  0  0  0  0
  -11.4797   67.3250   -2.9041 H   0  0  0  0  0  0  0  0  0  0  0  0
  -12.3376   68.2292   -1.6107 H   0  0  0  0  0  0  0  0  0  0  0  0
  -12.7832   65.6105   -2.0420 H   0  0  0  0  0  0  0  0  0  0  0  0
  -12.7951   66.3125   -0.3886 H   0  0  0  0  0  0  0  0  0  0  0  0
  -11.1816   64.6912   -0.0106 H   0  0  0  0  0  0  0  0  0  0  0  0
  -10.7088   64.6133   -1.7418 H   0  0  0  0  0  0  0  0  0  0  0  0
  -10.0552   70.1613   -1.0913 H   0  0  0  0  0  0  0  0  0  0  0  0
   -9.7880   70.4299    1.7958 H   0  0  0  0  0  0  0  0  0  0  0  0
   -8.3958   71.7534    0.2480 H   0  0  0  0  0  0  0  0  0  0  0  0
   -9.3810   72.8169    1.3087 H   0  0  0  0  0  0  0  0  0  0  0  0
   -9.4356   73.4596   -0.9074 H   0  0  0  0  0  0  0  0  0  0  0  0
  -12.5536   70.3756   -0.1637 H   0  0  0  0  0  0  0  0  0  0  0  0
  -14.1382   71.6316    1.9976 H   0  0  0  0  0  0  0  0  0  0  0  0
  -14.7727   70.6725    0.6176 H   0  0  0  0  0  0  0  0  0  0  0  0
  -16.3028   72.6405    0.8405 H   0  0  0  0  0  0  0  0  0  0  0  0
  -15.3392   74.5990   -1.1861 H   0  0  0  0  0  0  0  0  0  0  0  0
  -17.5317   74.5718   -2.2381 H   0  0  0  0  0  0  0  0  0  0  0  0
  -17.5319   72.2502   -3.1032 H   0  0  0  0  0  0  0  0  0  0  0  0
  -16.4492   71.7593   -1.7566 H   0  0  0  0  0  0  0  0  0  0  0  0
  -15.8750   72.9343   -2.9880 H   0  0  0  0  0  0  0  0  0  0  0  0
  -18.9177   74.1801   -0.2251 H   0  0  0  0  0  0  0  0  0  0  0  0
  -18.3435   72.4791   -0.1673 H   0  0  0  0  0  0  0  0  0  0  0  0
  -19.3281   73.0480   -1.5579 H   0  0  0  0  0  0  0  0  0  0  0  0
  -15.8685   74.6881    1.9284 H   0  0  0  0  0  0  0  0  0  0  0  0
  -17.8453   76.8572    2.0581 H   0  0  0  0  0  0  0  0  0  0  0  0
  -17.1439   76.9001    4.5126 H   0  0  0  0  0  0  0  0  0  0  0  0
  -16.1236   75.4691    4.1410 H   0  0  0  0  0  0  0  0  0  0  0  0
  -19.4565   76.6555    4.8961 H   0  0  0  0  0  0  0  0  0  0  0  0
  -17.2572   73.3951    3.2364 H   0  0  0  0  0  0  0  0  0  0  0  0
  -21.4095   75.1840    5.2047 H   0  0  0  0  0  0  0  0  0  0  0  0
  -19.2097   71.9236    3.5331 H   0  0  0  0  0  0  0  0  0  0  0  0
  -21.2907   72.8142    4.5244 H   0  0  0  0  0  0  0  0  0  0  0  0
  -16.8264   78.3263    0.6755 H   0  0  0  0  0  0  0  0  0  0  0  0
  -14.2078   79.3075    0.8306 H   0  0  0  0  0  0  0  0  0  0  0  0
  -16.7136   80.9058    0.0894 H   0  0  0  0  0  0  0  0  0  0  0  0
  -16.2018   80.0734   -2.0267 H   0  0  0  0  0  0  0  0  0  0  0  0
  -15.1649   82.1593   -1.3944 H   0  0  0  0  0  0  0  0  0  0  0  0
  -13.7846   81.1919   -0.7737 H   0  0  0  0  0  0  0  0  0  0  0  0
  -14.6738   82.2976    0.3278 H   0  0  0  0  0  0  0  0  0  0  0  0
  -17.1138   80.4042    2.5656 H   0  0  0  0  0  0  0  0  0  0  0  0
  -15.4324   82.2834    4.1453 H   0  0  0  0  0  0  0  0  0  0  0  0
  -17.5485   83.3366    4.7939 H   0  0  0  0  0  0  0  0  0  0  0  0
  -18.4674   82.0798    3.8979 H   0  0  0  0  0  0  0  0  0  0  0  0
  -16.3190   85.0628    3.5895 H   0  0  0  0  0  0  0  0  0  0  0  0
  -18.6110   82.1354    1.4883 H   0  0  0  0  0  0  0  0  0  0  0  0
  -16.2174   86.4445    1.5502 H   0  0  0  0  0  0  0  0  0  0  0  0
  -18.5049   83.5077   -0.5523 H   0  0  0  0  0  0  0  0  0  0  0  0
  -17.3044   85.6641   -0.5251 H   0  0  0  0  0  0  0  0  0  0  0  0
  -15.2617   82.1088    6.3264 H   0  0  0  0  0  0  0  0  0  0  0  0
  -16.9864   80.3651    7.8963 H   0  0  0  0  0  0  0  0  0  0  0  0
  -15.5893   81.3256    8.4898 H   0  0  0  0  0  0  0  0  0  0  0  0
  -15.4087   78.4639    8.6093 O   0  0  0  0  0  0  0  0  0  0  0  0
  1  2  1  0  0  0  0
  1 64  1  0  0  0  0
  1 65  1  0  0  0  0
  1 66  1  0  0  0  0
  2  3  1  0  0  0  0
  2  5  1  0  0  0  0
  2 67  1  6  0  0  0
  3  4  2  0  0  0  0
  3  7  1  0  0  0  0
  5  6  1  0  0  0  0
  5 68  1  0  0  0  0
  5 69  1  0  0  0  0
  6 70  1  0  0  0  0
  7  8  1  0  0  0  0
  7 13  1  0  0  0  0
  8  9  1  0  0  0  0
  8 11  1  0  0  0  0
  8 71  1  6  0  0  0
  9 10  2  0  0  0  0
  9 14  1  0  0  0  0
 11 12  1  0  0  0  0
 11 72  1  0  0  0  0
 11 73  1  0  0  0  0
 12 13  1  0  0  0  0
 12 74  1  0  0  0  0
 12 75  1  0  0  0  0
 13 76  1  0  0  0  0
 13 77  1  0  0  0  0
 14 15  1  0  0  0  0
 14 78  1  0  0  0  0
 15 16  1  0  0  0  0
 15 18  1  0  0  0  0
 15 79  1  1  0  0  0
 16 17  2  0  0  0  0
 16 20  1  0  0  0  0
 18 19  1  0  0  0  0
 18 80  1  0  0  0  0
 18 81  1  0  0  0  0
 19 82  1  0  0  0  0
 20 21  1  0  0  0  0
 20 83  1  0  0  0  0
 21 22  1  0  0  0  0
 21 84  1  0  0  0  0
 21 85  1  0  0  0  0
 22 23  2  0  0  0  0
 22 24  1  0  0  0  0
 24 25  1  0  0  0  0
 24 86  1  0  0  0  0
 25 26  1  0  0  0  0
 25 28  1  0  0  0  0
 25 87  1  6  0  0  0
 26 27  2  0  0  0  0
 26 31  1  0  0  0  0
 28 29  1  0  0  0  0
 28 30  1  0  0  0  0
 28 88  1  0  0  0  0
 29 89  1  0  0  0  0
 29 90  1  0  0  0  0
 29 91  1  0  0  0  0
 30 92  1  0  0  0  0
 30 93  1  0  0  0  0
 30 94  1  0  0  0  0
 31 32  1  0  0  0  0
 31 95  1  0  0  0  0
 32 33  1  0  0  0  0
 32 35  1  0  0  0  0
 32 96  1  6  0  0  0
 33 34  2  0  0  0  0
 33 42  1  0  0  0  0
 35 36  1  0  0  0  0
 35 97  1  0  0  0  0
 35 98  1  0  0  0  0
 36 37  2  0  0  0  0
 36 38  1  0  0  0  0
 37 39  1  0  0  0  0
 37 99  1  0  0  0  0
 38 40  2  0  0  0  0
 38100  1  0  0  0  0
 39 41  2  0  0  0  0
 39101  1  0  0  0  0
 40 41  1  0  0  0  0
 40102  1  0  0  0  0
 41103  1  0  0  0  0
 42 43  1  0  0  0  0
 42104  1  0  0  0  0
 43 44  1  0  0  0  0
 43 46  1  0  0  0  0
 43105  1  6  0  0  0
 44 45  2  0  0  0  0
 44 49  1  0  0  0  0
 46 47  1  0  0  0  0
 46 48  1  0  0  0  0
 46106  1  1  0  0  0
 47107  1  0  0  0  0
 48108  1  0  0  0  0
 48109  1  0  0  0  0
 48110  1  0  0  0  0
 49 50  1  0  0  0  0
 49111  1  0  0  0  0
 50 51  1  0  0  0  0
 50 53  1  0  0  0  0
 50112  1  1  0  0  0
 51 52  2  0  0  0  0
 51 60  1  0  0  0  0
 53 54  1  0  0  0  0
 53113  1  0  0  0  0
 53114  1  0  0  0  0
 54 55  2  0  0  0  0
 54 56  1  0  0  0  0
 55 57  1  0  0  0  0
 55115  1  0  0  0  0
 56 58  2  0  0  0  0
 56116  1  0  0  0  0
 57 59  2  0  0  0  0
 57117  1  0  0  0  0
 58 59  1  0  0  0  0
 58118  1  0  0  0  0
 59119  1  0  0  0  0
 60 61  1  0  0  0  0
 60120  1  0  0  0  0
 61 62  1  0  0  0  0
 61121  1  0  0  0  0
 61122  1  0  0  0  0
 62 63  1  0  0  0  0
 62123  2  0  0  0  0
M  CHG  2   1   1  63  -1
M  END
