4u0g_ligand
 OpenBabel08222323353D

113117  0  0  1  0  0  0  0  0999 V2000
  -75.8970   16.6220   54.3950 O   0  0  0  0  0  0  0  0  0  0  0  0
  -75.1790   15.6180   54.4970 C   0  0  0  0  0  0  0  0  0  0  0  0
  -73.8110   15.5460   53.9480 C   0  0  0  0  0  0  0  0  0  0  0  0
  -73.2780   16.5680   53.3260 C   0  0  0  0  0  0  0  0  0  0  0  0
  -71.9010   16.5780   52.7510 C   0  0  0  0  0  0  0  0  0  0  0  0
  -71.1220   17.8350   53.1010 C   0  0  1  0  0  0  0  0  0  0  0  0
  -70.9480   17.9280   54.6130 C   0  0  0  0  0  0  0  0  0  0  0  0
  -69.8220   17.8450   52.4060 C   0  0  0  0  0  0  0  0  0  0  0  0
  -69.8260   17.6900   50.9040 C   0  0  0  0  0  0  0  0  0  0  0  0
  -76.8530   14.9210   57.1600 C   0  0  0  0  0  0  0  0  0  0  0  0
  -75.6010   14.5040   55.1140 N   0  0  0  0  0  0  0  0  0  0  0  0
  -76.7010   14.1310   58.0870 O   0  0  0  0  0  0  0  0  0  0  0  0
  -79.8060   12.7390   51.4610 F   0  0  0  0  0  0  0  0  0  0  0  0
  -75.6840   10.5600   51.8470 F   0  0  0  0  0  0  0  0  0  0  0  0
  -76.9120   14.4130   55.7250 C   0  0  1  0  0  0  0  0  0  0  0  0
  -77.4250   12.9670   55.6820 C   0  0  0  0  0  0  0  0  0  0  0  0
  -77.5640   12.4550   54.2720 C   0  0  0  0  0  0  0  0  0  0  0  0
  -77.7460   11.6400   51.6020 C   0  0  0  0  0  0  0  0  0  0  0  0
  -78.6710   12.7990   53.5060 C   0  0  0  0  0  0  0  0  0  0  0  0
  -76.5570   11.6870   53.7020 C   0  0  0  0  0  0  0  0  0  0  0  0
  -78.7250   12.3850   52.2010 C   0  0  0  0  0  0  0  0  0  0  0  0
  -76.6780   11.3070   52.3920 C   0  0  0  0  0  0  0  0  0  0  0  0
  -76.9470   16.2450   57.3270 N   0  0  0  0  0  0  0  0  0  0  0  0
  -76.6850   16.8770   58.6080 C   0  0  2  0  0  0  0  0  0  0  0  0
  -77.8370   17.8370   58.9280 C   0  0  0  0  0  0  0  0  0  0  0  0
  -78.2440   18.6360   58.0850 O   0  0  0  0  0  0  0  0  0  0  0  0
  -75.2810   17.4930   58.6200 C   0  0  2  0  0  0  0  0  0  0  0  0
  -74.1890   16.5160   58.6590 O   0  0  0  0  0  0  0  0  0  0  0  0
  -75.0820   18.5160   59.7130 C   0  0  0  0  0  0  0  0  0  0  0  0
  -78.4170   17.7470   60.1420 N   0  0  0  0  0  0  0  0  0  0  0  0
  -78.0310   16.7560   61.1580 C   0  0  2  0  0  0  0  0  0  0  0  0
  -78.4460   15.3370   60.7440 C   0  0  0  0  0  0  0  0  0  0  0  0
  -79.2200   15.1930   59.8170 O   0  0  0  0  0  0  0  0  0  0  0  0
  -78.8000   17.2100   62.4040 C   0  0  0  0  0  0  0  0  0  0  0  0
  -80.0060   17.9270   61.8530 C   0  0  0  0  0  0  0  0  0  0  0  0
  -79.4900   18.6340   60.6220 C   0  0  0  0  0  0  0  0  0  0  0  0
  -77.9460   14.2760   61.4090 N   0  0  0  0  0  0  0  0  0  0  0  0
  -74.8700   12.7390   62.4330 O   0  0  0  0  0  0  0  0  0  0  0  0
  -76.7040   14.2510   62.1920 C   0  0  2  0  0  0  0  0  0  0  0  0
  -75.5960   13.3440   61.6500 C   0  0  0  0  0  0  0  0  0  0  0  0
  -77.0300   13.8810   63.6370 C   0  0  0  0  0  0  0  0  0  0  0  0
  -77.6950   12.5130   63.6900 C   0  0  1  0  0  0  0  0  0  0  0  0
  -77.9910   12.0940   65.1240 C   0  0  0  0  0  0  0  0  0  0  0  0
  -78.9460   12.5400   62.8340 C   0  0  0  0  0  0  0  0  0  0  0  0
  -78.6570   12.9920   61.4050 C   0  0  0  0  0  0  0  0  0  0  0  0
  -75.4740   13.2420   60.3200 N   0  0  0  0  0  0  0  0  0  0  0  0
  -74.5080   12.3350   59.7190 C   0  0  2  0  0  0  0  0  0  0  0  0
  -74.0140   12.8290   58.3530 C   0  0  0  0  0  0  0  0  0  0  0  0
  -73.9180   12.0440   57.4290 O   0  0  0  0  0  0  0  0  0  0  0  0
  -75.1230   10.9540   59.5460 C   0  0  0  0  0  0  0  0  0  0  0  0
  -73.2540   13.9340   58.4150 N   0  0  0  0  0  0  0  0  0  0  0  0
  -73.0020   14.6890   59.6400 C   0  0  2  0  0  0  0  0  0  0  0  0
  -73.9730   15.8500   59.8110 C   0  0  0  0  0  0  0  0  0  0  0  0
  -74.4970   16.1140   60.8540 O   0  0  0  0  0  0  0  0  0  0  0  0
  -71.5650   15.1760   59.4470 C   0  0  0  0  0  0  0  0  0  0  0  0
  -71.4240   15.3460   57.9400 C   0  0  0  0  0  0  0  0  0  0  0  0
  -72.4900   14.4770   57.2820 C   0  0  0  0  0  0  0  0  0  0  0  0
  -73.2355   14.6285   54.0619 H   0  0  0  0  0  0  0  0  0  0  0  0
  -73.8794   17.4699   53.2216 H   0  0  0  0  0  0  0  0  0  0  0  0
  -71.9775   16.5063   51.6560 H   0  0  0  0  0  0  0  0  0  0  0  0
  -71.3528   15.7065   53.1382 H   0  0  0  0  0  0  0  0  0  0  0  0
  -71.6984   18.7093   52.7643 H   0  0  0  0  0  0  0  0  0  0  0  0
  -70.3838   18.8389   54.8618 H   0  0  0  0  0  0  0  0  0  0  0  0
  -70.3982   17.0462   54.9738 H   0  0  0  0  0  0  0  0  0  0  0  0
  -71.9364   17.9660   55.0942 H   0  0  0  0  0  0  0  0  0  0  0  0
  -69.2225   17.0206   52.8194 H   0  0  0  0  0  0  0  0  0  0  0  0
  -69.3344   18.8039   52.6356 H   0  0  0  0  0  0  0  0  0  0  0  0
  -68.7919   17.7164   50.5299 H   0  0  0  0  0  0  0  0  0  0  0  0
  -70.4004   18.5120   50.4521 H   0  0  0  0  0  0  0  0  0  0  0  0
  -70.2885   16.7287   50.6358 H   0  0  0  0  0  0  0  0  0  0  0  0
  -74.9920   13.7118   55.1535 H   0  0  0  0  0  0  0  0  0  0  0  0
  -77.6089   15.0470   55.1572 H   0  0  0  0  0  0  0  0  0  0  0  0
  -78.4086   12.9251   56.1728 H   0  0  0  0  0  0  0  0  0  0  0  0
  -76.7168   12.3234   56.2245 H   0  0  0  0  0  0  0  0  0  0  0  0
  -77.8118   11.3320   50.5648 H   0  0  0  0  0  0  0  0  0  0  0  0
  -79.4773   13.3843   53.9331 H   0  0  0  0  0  0  0  0  0  0  0  0
  -75.6907   11.3936   54.2837 H   0  0  0  0  0  0  0  0  0  0  0  0
  -77.2050   16.8158   56.5475 H   0  0  0  0  0  0  0  0  0  0  0  0
  -76.6935   16.0957   59.3822 H   0  0  0  0  0  0  0  0  0  0  0  0
  -75.1841   18.0299   57.6649 H   0  0  0  0  0  0  0  0  0  0  0  0
  -74.0576   18.9134   59.6611 H   0  0  0  0  0  0  0  0  0  0  0  0
  -75.2421   18.0419   60.6926 H   0  0  0  0  0  0  0  0  0  0  0  0
  -75.8012   19.3378   59.5814 H   0  0  0  0  0  0  0  0  0  0  0  0
  -76.9457   16.7805   61.3356 H   0  0  0  0  0  0  0  0  0  0  0  0
  -78.1873   17.8896   63.0146 H   0  0  0  0  0  0  0  0  0  0  0  0
  -79.1043   16.3449   63.0115 H   0  0  0  0  0  0  0  0  0  0  0  0
  -80.3962   18.6511   62.5833 H   0  0  0  0  0  0  0  0  0  0  0  0
  -80.7977   17.2108   61.5878 H   0  0  0  0  0  0  0  0  0  0  0  0
  -80.2827   18.7372   59.8664 H   0  0  0  0  0  0  0  0  0  0  0  0
  -79.0942   19.6283   60.8763 H   0  0  0  0  0  0  0  0  0  0  0  0
  -76.3032   15.2754   62.1868 H   0  0  0  0  0  0  0  0  0  0  0  0
  -77.7118   14.6334   64.0602 H   0  0  0  0  0  0  0  0  0  0  0  0
  -76.1005   13.8565   64.2248 H   0  0  0  0  0  0  0  0  0  0  0  0
  -77.0016   11.7743   63.2617 H   0  0  0  0  0  0  0  0  0  0  0  0
  -78.4700   11.1037   65.1252 H   0  0  0  0  0  0  0  0  0  0  0  0
  -78.6656   12.8281   65.5887 H   0  0  0  0  0  0  0  0  0  0  0  0
  -77.0513   12.0474   65.6938 H   0  0  0  0  0  0  0  0  0  0  0  0
  -79.6695   13.2346   63.2858 H   0  0  0  0  0  0  0  0  0  0  0  0
  -79.3775   11.5286   62.8052 H   0  0  0  0  0  0  0  0  0  0  0  0
  -78.0357   12.2351   60.9040 H   0  0  0  0  0  0  0  0  0  0  0  0
  -79.6066   13.1051   60.8615 H   0  0  0  0  0  0  0  0  0  0  0  0
  -76.0575   13.7994   59.7294 H   0  0  0  0  0  0  0  0  0  0  0  0
  -73.6434   12.2578   60.3947 H   0  0  0  0  0  0  0  0  0  0  0  0
  -74.3840   10.2779   59.0913 H   0  0  0  0  0  0  0  0  0  0  0  0
  -76.0056   11.0248   58.8933 H   0  0  0  0  0  0  0  0  0  0  0  0
  -75.4239   10.5609   60.5283 H   0  0  0  0  0  0  0  0  0  0  0  0
  -73.0748   14.0332   60.5201 H   0  0  0  0  0  0  0  0  0  0  0  0
  -70.8476   14.4322   59.8239 H   0  0  0  0  0  0  0  0  0  0  0  0
  -71.4056   16.1339   59.9637 H   0  0  0  0  0  0  0  0  0  0  0  0
  -70.4234   15.0228   57.6170 H   0  0  0  0  0  0  0  0  0  0  0  0
  -71.5755   16.4001   57.6646 H   0  0  0  0  0  0  0  0  0  0  0  0
  -73.1365   15.0797   56.6272 H   0  0  0  0  0  0  0  0  0  0  0  0
  -72.0286   13.6675   56.6974 H   0  0  0  0  0  0  0  0  0  0  0  0
  2  1  2  0  0  0  0
  2  3  1  0  0  0  0
  3  4  2  0  0  0  0
  3 58  1  0  0  0  0
  4  5  1  0  0  0  0
  4 59  1  0  0  0  0
  5  6  1  0  0  0  0
  5 60  1  0  0  0  0
  5 61  1  0  0  0  0
  6  7  1  0  0  0  0
  6  8  1  0  0  0  0
  6 62  1  6  0  0  0
  7 63  1  0  0  0  0
  7 64  1  0  0  0  0
  7 65  1  0  0  0  0
  8  9  1  0  0  0  0
  8 66  1  0  0  0  0
  8 67  1  0  0  0  0
  9 68  1  0  0  0  0
  9 69  1  0  0  0  0
  9 70  1  0  0  0  0
 10 12  2  0  0  0  0
 10 15  1  0  0  0  0
 11  2  1  0  0  0  0
 11 71  1  0  0  0  0
 15 11  1  0  0  0  0
 15 16  1  0  0  0  0
 15 72  1  6  0  0  0
 16 17  1  0  0  0  0
 16 73  1  0  0  0  0
 16 74  1  0  0  0  0
 17 19  2  0  0  0  0
 17 20  1  0  0  0  0
 18 75  1  0  0  0  0
 19 21  1  0  0  0  0
 19 76  1  0  0  0  0
 20 22  2  0  0  0  0
 20 77  1  0  0  0  0
 21 13  1  0  0  0  0
 21 18  2  0  0  0  0
 22 14  1  0  0  0  0
 22 18  1  0  0  0  0
 23 10  1  0  0  0  0
 23 78  1  0  0  0  0
 24 23  1  0  0  0  0
 24 27  1  0  0  0  0
 24 79  1  1  0  0  0
 25 24  1  0  0  0  0
 25 26  2  0  0  0  0
 27 28  1  0  0  0  0
 27 29  1  0  0  0  0
 27 80  1  6  0  0  0
 28 53  1  0  0  0  0
 29 81  1  0  0  0  0
 29 82  1  0  0  0  0
 29 83  1  0  0  0  0
 30 25  1  0  0  0  0
 30 36  1  0  0  0  0
 31 30  1  0  0  0  0
 31 34  1  0  0  0  0
 31 84  1  1  0  0  0
 32 31  1  0  0  0  0
 32 33  2  0  0  0  0
 34 35  1  0  0  0  0
 34 85  1  0  0  0  0
 34 86  1  0  0  0  0
 35 36  1  0  0  0  0
 35 87  1  0  0  0  0
 35 88  1  0  0  0  0
 36 89  1  0  0  0  0
 36 90  1  0  0  0  0
 37 32  1  0  0  0  0
 37 45  1  0  0  0  0
 39 37  1  0  0  0  0
 39 40  1  0  0  0  0
 39 41  1  0  0  0  0
 39 91  1  1  0  0  0
 40 38  2  0  0  0  0
 40 46  1  0  0  0  0
 41 42  1  0  0  0  0
 41 92  1  0  0  0  0
 41 93  1  0  0  0  0
 42 43  1  0  0  0  0
 42 44  1  0  0  0  0
 42 94  1  6  0  0  0
 43 95  1  0  0  0  0
 43 96  1  0  0  0  0
 43 97  1  0  0  0  0
 44 45  1  0  0  0  0
 44 98  1  0  0  0  0
 44 99  1  0  0  0  0
 45100  1  0  0  0  0
 45101  1  0  0  0  0
 46 47  1  0  0  0  0
 46102  1  0  0  0  0
 47 48  1  0  0  0  0
 47 50  1  0  0  0  0
 47103  1  1  0  0  0
 48 49  2  0  0  0  0
 48 51  1  0  0  0  0
 50104  1  0  0  0  0
 50105  1  0  0  0  0
 50106  1  0  0  0  0
 51 52  1  0  0  0  0
 51 57  1  0  0  0  0
 52 53  1  0  0  0  0
 52 55  1  0  0  0  0
 52107  1  1  0  0  0
 53 54  2  0  0  0  0
 55 56  1  0  0  0  0
 55108  1  0  0  0  0
 55109  1  0  0  0  0
 56 57  1  0  0  0  0
 56110  1  0  0  0  0
 56111  1  0  0  0  0
 57112  1  0  0  0  0
 57113  1  0  0  0  0
M  END
