4u2y_ligand
 OpenBabel08222323353D

 46 47  0  0  1  0  0  0  0  0999 V2000
   27.3770  -29.4670  278.9870 O   0  0  0  0  0  0  0  0  0  0  0  0
   27.2450  -30.7450  279.6140 C   0  0  0  0  0  0  0  0  0  0  0  0
   25.8170  -31.0760  280.0380 C   0  0  2  0  0  0  0  0  0  0  0  0
   23.8070  -30.1220  280.4210 C   0  0  2  0  0  0  0  0  0  0  0  0
   23.0010  -30.3880  281.5160 C   0  0  0  0  0  0  0  0  0  0  0  0
   22.4760  -29.0960  281.9220 O   0  0  0  0  0  0  0  0  0  0  0  0
   23.6710  -31.2280  279.2710 C   0  0  1  0  0  0  0  0  0  0  0  0
   22.5290  -30.8150  278.3730 O   0  0  0  0  0  0  0  0  0  0  0  0
   24.7930  -31.1390  278.7190 C   0  0  2  0  0  0  0  0  0  0  0  0
   25.1430  -32.2780  277.8500 O   0  0  0  0  0  0  0  0  0  0  0  0
   24.7000  -32.0300  276.5420 C   0  0  2  0  0  0  0  0  0  0  0  0
   24.3670  -33.3570  275.9370 C   0  0  2  0  0  0  0  0  0  0  0  0
   23.3400  -33.9690  276.7540 O   0  0  0  0  0  0  0  0  0  0  0  0
   25.5910  -34.1920  275.8300 C   0  0  1  0  0  0  0  0  0  0  0  0
   25.3160  -35.5290  275.3250 O   0  0  0  0  0  0  0  0  0  0  0  0
   26.5740  -33.5070  274.9590 C   0  0  2  0  0  0  0  0  0  0  0  0
   27.7510  -34.3480  274.7720 O   0  0  0  0  0  0  0  0  0  0  0  0
   26.9350  -32.2140  275.6360 C   0  0  1  0  0  0  0  0  0  0  0  0
   28.0290  -31.4480  274.9630 C   0  0  0  0  0  0  0  0  0  0  0  0
   27.5060  -30.7740  273.8310 O   0  0  0  0  0  0  0  0  0  0  0  0
   25.7540  -31.3280  275.7860 O   0  0  0  0  0  0  0  0  0  0  0  0
   25.2970  -30.1390  280.7830 N   0  3  0  0  0  0  0  0  0  0  0  0
   27.0963  -28.7890  279.5903 H   0  0  0  0  0  0  0  0  0  0  0  0
   27.8852  -30.7608  280.5084 H   0  0  0  0  0  0  0  0  0  0  0  0
   27.5845  -31.5157  278.9064 H   0  0  0  0  0  0  0  0  0  0  0  0
   25.8177  -32.0366  280.5739 H   0  0  0  0  0  0  0  0  0  0  0  0
   23.5303  -29.1349  280.0223 H   0  0  0  0  0  0  0  0  0  0  0  0
   23.5899  -30.8382  282.3287 H   0  0  0  0  0  0  0  0  0  0  0  0
   22.1820  -31.0672  281.2368 H   0  0  0  0  0  0  0  0  0  0  0  0
   23.1964  -28.5198  282.1489 H   0  0  0  0  0  0  0  0  0  0  0  0
   23.4961  -32.2380  279.6702 H   0  0  0  0  0  0  0  0  0  0  0  0
   21.7287  -30.7662  278.8825 H   0  0  0  0  0  0  0  0  0  0  0  0
   24.8530  -30.2146  278.1259 H   0  0  0  0  0  0  0  0  0  0  0  0
   23.7981  -31.4007  276.5645 H   0  0  0  0  0  0  0  0  0  0  0  0
   23.9663  -33.2030  274.9242 H   0  0  0  0  0  0  0  0  0  0  0  0
   23.1100  -34.8158  276.3899 H   0  0  0  0  0  0  0  0  0  0  0  0
   26.0246  -34.2932  276.8358 H   0  0  0  0  0  0  0  0  0  0  0  0
   24.9292  -35.4661  274.4596 H   0  0  0  0  0  0  0  0  0  0  0  0
   26.1225  -33.2979  273.9780 H   0  0  0  0  0  0  0  0  0  0  0  0
   28.3739  -33.8992  274.2125 H   0  0  0  0  0  0  0  0  0  0  0  0
   27.2910  -32.4736  276.6439 H   0  0  0  0  0  0  0  0  0  0  0  0
   28.8199  -32.1424  274.6433 H   0  0  0  0  0  0  0  0  0  0  0  0
   28.4483  -30.7132  275.6660 H   0  0  0  0  0  0  0  0  0  0  0  0
   26.8230  -30.1746  274.1082 H   0  0  0  0  0  0  0  0  0  0  0  0
   25.7211  -29.2478  280.5782 H   0  0  0  0  0  0  0  0  0  0  0  0
   25.4214  -30.3538  281.7600 H   0  0  0  0  0  0  0  0  0  0  0  0
  1 23  1  0  0  0  0
  2  1  1  0  0  0  0
  2 24  1  0  0  0  0
  2 25  1  0  0  0  0
  3  2  1  0  0  0  0
  3  9  1  0  0  0  0
  3 26  1  1  0  0  0
  4  5  1  0  0  0  0
  4  7  1  0  0  0  0
  4 22  1  0  0  0  0
  4 27  1  6  0  0  0
  5  6  1  0  0  0  0
  5 28  1  0  0  0  0
  5 29  1  0  0  0  0
  6 30  1  0  0  0  0
  7  8  1  0  0  0  0
  7  9  1  0  0  0  0
  7 31  1  1  0  0  0
  8 32  1  0  0  0  0
  9 10  1  0  0  0  0
  9 33  1  6  0  0  0
 10 11  1  0  0  0  0
 11 12  1  0  0  0  0
 11 21  1  0  0  0  0
 11 34  1  1  0  0  0
 12 13  1  0  0  0  0
 12 14  1  0  0  0  0
 12 35  1  6  0  0  0
 13 36  1  0  0  0  0
 14 15  1  0  0  0  0
 14 16  1  0  0  0  0
 14 37  1  1  0  0  0
 15 38  1  0  0  0  0
 16 17  1  0  0  0  0
 16 18  1  0  0  0  0
 16 39  1  6  0  0  0
 17 40  1  0  0  0  0
 18 19  1  0  0  0  0
 18 21  1  0  0  0  0
 18 41  1  1  0  0  0
 19 20  1  0  0  0  0
 19 42  1  0  0  0  0
 19 43  1  0  0  0  0
 20 44  1  0  0  0  0
 22  3  1  0  0  0  0
 22 45  1  0  0  0  0
 22 46  1  0  0  0  0
M  CHG  1  22   1
M  END
