4u5j_ligand
 OpenBabel08222323353D

 44 47  0  0  1  0  0  0  0  0999 V2000
   -9.9220   26.9370    7.9160 C   0  0  0  0  0  0  0  0  0  0  0  0
  -10.2330   28.5000    7.8030 C   0  0  0  0  0  0  0  0  0  0  0  0
  -11.2460   28.6150    6.9090 C   0  0  0  0  0  0  0  0  0  0  0  0
  -11.9880   27.1340    6.7970 C   0  0  0  0  0  0  0  0  0  0  0  0
  -11.0620   26.1780    7.1160 C   0  0  1  0  0  0  0  0  0  0  0  0
  -10.4760   25.4700    5.8710 C   0  0  1  0  0  0  0  0  0  0  0  0
  -11.5650   24.6940    5.1580 C   0  0  0  0  0  0  0  0  0  0  0  0
  -11.4280   23.2100    5.4960 C   0  0  0  0  0  0  0  0  0  0  0  0
  -12.5950   22.7910    6.1840 N   0  3  0  0  0  0  0  0  0  0  0  0
   -9.8050   26.3380    4.9580 N   0  0  0  0  0  0  0  0  0  0  0  0
   -8.4850   26.5440    4.9920 C   0  0  0  0  0  0  0  0  0  0  0  0
  -10.3460   27.0060    3.9620 N   0  0  0  0  0  0  0  0  0  0  0  0
   -9.4100   27.7040    3.3000 C   0  0  0  0  0  0  0  0  0  0  0  0
   -8.1570   27.4300    3.9270 C   0  0  0  0  0  0  0  0  0  0  0  0
   -6.7910   27.9610    3.6250 C   0  0  0  0  0  0  0  0  0  0  0  0
   -6.6240   29.0140    2.8050 N   0  0  0  0  0  0  0  0  0  0  0  0
   -5.4140   29.5000    2.5700 C   0  0  0  0  0  0  0  0  0  0  0  0
   -4.3250   28.9760    3.1280 N   0  0  0  0  0  0  0  0  0  0  0  0
   -4.4000   27.8950    3.9890 C   0  0  0  0  0  0  0  0  0  0  0  0
   -5.6420   27.3540    4.2710 C   0  0  0  0  0  0  0  0  0  0  0  0
   -5.4050   26.2520    5.1970 C   0  0  0  0  0  0  0  0  0  0  0  0
   -4.0180   26.2290    5.3960 C   0  0  0  0  0  0  0  0  0  0  0  0
   -3.4550   27.1960    4.6820 N   0  0  0  0  0  0  0  0  0  0  0  0
   -9.9296   26.6257    8.9710 H   0  0  0  0  0  0  0  0  0  0  0  0
   -8.9391   26.7146    7.4751 H   0  0  0  0  0  0  0  0  0  0  0  0
   -9.7334   29.3081    8.3353 H   0  0  0  0  0  0  0  0  0  0  0  0
  -11.5228   29.5158    6.3632 H   0  0  0  0  0  0  0  0  0  0  0  0
  -12.3526   26.9745    5.7715 H   0  0  0  0  0  0  0  0  0  0  0  0
  -12.8337   27.0849    7.4987 H   0  0  0  0  0  0  0  0  0  0  0  0
  -11.5283   25.4183    7.7605 H   0  0  0  0  0  0  0  0  0  0  0  0
   -9.7297   24.7476    6.2331 H   0  0  0  0  0  0  0  0  0  0  0  0
  -11.4658   24.8345    4.0715 H   0  0  0  0  0  0  0  0  0  0  0  0
  -12.5503   25.0566    5.4862 H   0  0  0  0  0  0  0  0  0  0  0  0
  -10.5461   23.0558    6.1351 H   0  0  0  0  0  0  0  0  0  0  0  0
  -11.3156   22.6281    4.5693 H   0  0  0  0  0  0  0  0  0  0  0  0
  -12.5169   21.8124    6.4129 H   0  0  0  0  0  0  0  0  0  0  0  0
  -13.4014   22.9354    5.5967 H   0  0  0  0  0  0  0  0  0  0  0  0
  -12.6962   23.3272    7.0315 H   0  0  0  0  0  0  0  0  0  0  0  0
   -7.7857   26.1117    5.7062 H   0  0  0  0  0  0  0  0  0  0  0  0
   -9.5754   28.3572    2.4445 H   0  0  0  0  0  0  0  0  0  0  0  0
   -5.3078   30.3488    1.9041 H   0  0  0  0  0  0  0  0  0  0  0  0
   -6.1472   25.5890    5.6391 H   0  0  0  0  0  0  0  0  0  0  0  0
   -3.4854   25.5274    6.0363 H   0  0  0  0  0  0  0  0  0  0  0  0
   -2.4441   27.3917    4.6548 H   0  0  0  0  0  0  0  0  0  0  0  0
  1  2  1  0  0  0  0
  1  5  1  0  0  0  0
  1 24  1  0  0  0  0
  1 25  1  0  0  0  0
  2  3  2  0  0  0  0
  2 26  1  0  0  0  0
  3  4  1  0  0  0  0
  3 27  1  0  0  0  0
  4  5  1  0  0  0  0
  4 28  1  0  0  0  0
  4 29  1  0  0  0  0
  5  6  1  0  0  0  0
  5 30  1  1  0  0  0
  6  7  1  0  0  0  0
  6 10  1  0  0  0  0
  6 31  1  1  0  0  0
  7  8  1  0  0  0  0
  7 32  1  0  0  0  0
  7 33  1  0  0  0  0
  8  9  1  0  0  0  0
  8 34  1  0  0  0  0
  8 35  1  0  0  0  0
  9 36  1  0  0  0  0
  9 37  1  0  0  0  0
  9 38  1  0  0  0  0
 10 11  1  0  0  0  0
 10 12  1  0  0  0  0
 11 14  2  0  0  0  0
 11 39  1  0  0  0  0
 12 13  2  0  0  0  0
 13 14  1  0  0  0  0
 13 40  1  0  0  0  0
 14 15  1  0  0  0  0
 15 16  2  0  0  0  0
 15 20  1  0  0  0  0
 16 17  1  0  0  0  0
 17 18  2  0  0  0  0
 17 41  1  0  0  0  0
 18 19  1  0  0  0  0
 19 20  2  0  0  0  0
 19 23  1  0  0  0  0
 20 21  1  0  0  0  0
 21 22  2  0  0  0  0
 21 42  1  0  0  0  0
 22 23  1  0  0  0  0
 22 43  1  0  0  0  0
 23 44  1  0  0  0  0
M  CHG  1   9   1
M  END
