4u5l_ligand
 OpenBabel08222323353D

 49 50  0  0  1  0  0  0  0  0999 V2000
    2.2370   37.7880   11.4050 C   0  0  0  0  0  0  0  0  0  0  0  0
    1.3280   34.4980   13.1450 C   0  0  0  0  0  0  0  0  0  0  0  0
   -0.0130   32.4690   12.3490 C   0  0  0  0  0  0  0  0  0  0  0  0
    0.1580   30.2220   13.1320 C   0  0  0  0  0  0  0  0  0  0  0  0
   -1.2770   32.1810   11.8380 C   0  0  0  0  0  0  0  0  0  0  0  0
    0.3770   34.4880   10.9270 C   0  0  0  0  0  0  0  0  0  0  0  0
    0.9110   35.7430   10.7120 C   0  0  0  0  0  0  0  0  0  0  0  0
    3.2580   40.3310    7.9050 N   0  0  0  0  0  0  0  0  0  0  0  0
    3.4260   39.7190    9.2210 C   0  0  0  0  0  0  0  0  0  0  0  0
    3.5650   38.1820    9.3440 C   0  0  2  0  0  0  0  0  0  0  0  0
    2.5030   37.4750    8.4770 C   0  0  0  0  0  0  0  0  0  0  0  0
    2.9900   36.8480    7.1600 C   0  0  0  0  0  0  0  0  0  0  0  0
    1.9700   37.0190    6.0210 C   0  0  0  0  0  0  0  0  0  0  0  0
    1.9430   38.4500    5.4430 C   0  0  0  0  0  0  0  0  0  0  0  0
    0.9850   38.6300    4.3500 N   0  3  0  0  0  0  0  0  0  0  0  0
    3.5440   37.7100   10.7440 N   0  3  0  0  0  0  0  0  0  0  0  0
    1.6570   36.3910   11.6980 C   0  0  0  0  0  0  0  0  0  0  0  0
    1.8630   35.7660   12.9270 C   0  0  0  0  0  0  0  0  0  0  0  0
    0.5810   33.8650   12.1520 C   0  0  0  0  0  0  0  0  0  0  0  0
    0.7360   31.4830   12.9960 C   0  0  0  0  0  0  0  0  0  0  0  0
   -1.1150   30.0000   12.6120 C   0  0  0  0  0  0  0  0  0  0  0  0
   -1.7790   30.9690   11.9940 N   0  0  0  0  0  0  0  0  0  0  0  0
    3.4570   40.4270   10.1810 O   0  0  0  0  0  0  0  0  0  0  0  0
    1.5398   38.3325   10.7513 H   0  0  0  0  0  0  0  0  0  0  0  0
    2.3504   38.3321   12.3542 H   0  0  0  0  0  0  0  0  0  0  0  0
    1.4937   33.9999   14.0934 H   0  0  0  0  0  0  0  0  0  0  0  0
    0.6921   29.4245   13.6358 H   0  0  0  0  0  0  0  0  0  0  0  0
   -1.8433   32.9446   11.3172 H   0  0  0  0  0  0  0  0  0  0  0  0
   -0.1946   33.9946   10.1493 H   0  0  0  0  0  0  0  0  0  0  0  0
    0.7479   36.2343    9.7596 H   0  0  0  0  0  0  0  0  0  0  0  0
    3.1680   41.3236    7.8230 H   0  0  0  0  0  0  0  0  0  0  0  0
    3.2330   39.7573    7.0863 H   0  0  0  0  0  0  0  0  0  0  0  0
    4.5503   37.9138    8.9349 H   0  0  0  0  0  0  0  0  0  0  0  0
    1.7299   38.2165    8.2269 H   0  0  0  0  0  0  0  0  0  0  0  0
    2.0586   36.6722    9.0836 H   0  0  0  0  0  0  0  0  0  0  0  0
    3.1628   35.7738    7.3220 H   0  0  0  0  0  0  0  0  0  0  0  0
    3.9335   37.3309    6.8656 H   0  0  0  0  0  0  0  0  0  0  0  0
    0.9689   36.7789    6.4084 H   0  0  0  0  0  0  0  0  0  0  0  0
    2.2277   36.3195    5.2122 H   0  0  0  0  0  0  0  0  0  0  0  0
    2.9480   38.6903    5.0659 H   0  0  0  0  0  0  0  0  0  0  0  0
    1.6792   39.1459    6.2530 H   0  0  0  0  0  0  0  0  0  0  0  0
    1.0223   39.5831    4.0241 H   0  0  0  0  0  0  0  0  0  0  0  0
    0.0553   38.4242    4.6807 H   0  0  0  0  0  0  0  0  0  0  0  0
    1.2180   38.0067    3.5929 H   0  0  0  0  0  0  0  0  0  0  0  0
    3.8424   36.7473   10.7538 H   0  0  0  0  0  0  0  0  0  0  0  0
    4.1954   38.2692   11.2722 H   0  0  0  0  0  0  0  0  0  0  0  0
    2.4332   36.2611   13.7047 H   0  0  0  0  0  0  0  0  0  0  0  0
    1.7290   31.6908   13.3778 H   0  0  0  0  0  0  0  0  0  0  0  0
   -1.5701   29.0214   12.7135 H   0  0  0  0  0  0  0  0  0  0  0  0
  1 17  1  0  0  0  0
  1 24  1  0  0  0  0
  1 25  1  0  0  0  0
  2 18  2  0  0  0  0
  2 26  1  0  0  0  0
  3  5  2  0  0  0  0
  3 20  1  0  0  0  0
  4 21  1  0  0  0  0
  4 27  1  0  0  0  0
  5 22  1  0  0  0  0
  5 28  1  0  0  0  0
  6 19  2  0  0  0  0
  6 29  1  0  0  0  0
  7  6  1  0  0  0  0
  7 30  1  0  0  0  0
  8 31  1  0  0  0  0
  8 32  1  0  0  0  0
  9  8  1  0  0  0  0
  9 23  2  0  0  0  0
 10  9  1  0  0  0  0
 10 11  1  0  0  0  0
 10 16  1  0  0  0  0
 10 33  1  6  0  0  0
 11 12  1  0  0  0  0
 11 34  1  0  0  0  0
 11 35  1  0  0  0  0
 12 13  1  0  0  0  0
 12 36  1  0  0  0  0
 12 37  1  0  0  0  0
 13 14  1  0  0  0  0
 13 38  1  0  0  0  0
 13 39  1  0  0  0  0
 14 15  1  0  0  0  0
 14 40  1  0  0  0  0
 14 41  1  0  0  0  0
 15 42  1  0  0  0  0
 15 43  1  0  0  0  0
 15 44  1  0  0  0  0
 16  1  1  0  0  0  0
 16 45  1  0  0  0  0
 16 46  1  0  0  0  0
 17  7  2  0  0  0  0
 17 18  1  0  0  0  0
 18 47  1  0  0  0  0
 19  2  1  0  0  0  0
 19  3  1  0  0  0  0
 20  4  2  0  0  0  0
 20 48  1  0  0  0  0
 21 22  2  0  0  0  0
 21 49  1  0  0  0  0
M  CHG  2  15   1  16   1
M  END
