4u6e_ligand
 OpenBabel08222323353D

 21 21  0  0  1  0  0  0  0  0999 V2000
  -20.3360  -15.6720  -11.3220 O   0  0  0  0  0  1  0  0  0  0  0  0
  -21.7060  -15.1050  -11.2160 P   0  0  0  0  0  0  0  0  0  0  0  0
  -22.3530  -14.8960  -12.6660 O   0  0  0  0  0  1  0  0  0  0  0  0
  -21.7000  -13.7300  -10.3720 O   0  0  0  0  0  0  0  0  0  0  0  0
  -22.7050  -16.2140  -10.1590 C   0  0  1  0  0  0  0  0  0  0  0  0
  -23.9700  -15.5790   -9.8250 N   0  3  0  0  0  0  0  0  0  0  0  0
  -22.9870  -17.5750  -10.6920 C   0  0  0  0  0  0  0  0  0  0  0  0
  -22.3670  -18.0770  -11.8350 C   0  0  0  0  0  0  0  0  0  0  0  0
  -22.6540  -19.3690  -12.2780 C   0  0  0  0  0  0  0  0  0  0  0  0
  -23.5590  -20.1690  -11.5810 C   0  0  0  0  0  0  0  0  0  0  0  0
  -24.1770  -19.6680  -10.4380 C   0  0  0  0  0  0  0  0  0  0  0  0
  -23.8910  -18.3720   -9.9940 C   0  0  0  0  0  0  0  0  0  0  0  0
  -22.1359  -16.3510   -9.2277 H   0  0  0  0  0  0  0  0  0  0  0  0
  -24.5129  -16.1974   -9.2428 H   0  0  0  0  0  0  0  0  0  0  0  0
  -24.4801  -15.3803  -10.6714 H   0  0  0  0  0  0  0  0  0  0  0  0
  -23.7938  -14.7192   -9.3292 H   0  0  0  0  0  0  0  0  0  0  0  0
  -21.6603  -17.4626  -12.3810 H   0  0  0  0  0  0  0  0  0  0  0  0
  -22.1706  -19.7529  -13.1691 H   0  0  0  0  0  0  0  0  0  0  0  0
  -23.7796  -21.1726  -11.9261 H   0  0  0  0  0  0  0  0  0  0  0  0
  -24.8816  -20.2836   -9.8906 H   0  0  0  0  0  0  0  0  0  0  0  0
  -24.3748  -17.9871   -9.1036 H   0  0  0  0  0  0  0  0  0  0  0  0
  1  2  1  0  0  0  0
  2  3  1  0  0  0  0
  2  4  2  0  0  0  0
  2  5  1  0  0  0  0
  5  6  1  0  0  0  0
  5  7  1  0  0  0  0
  5 13  1  1  0  0  0
  6 14  1  0  0  0  0
  6 15  1  0  0  0  0
  6 16  1  0  0  0  0
  7  8  2  0  0  0  0
  7 12  1  0  0  0  0
  8  9  1  0  0  0  0
  8 17  1  0  0  0  0
  9 10  2  0  0  0  0
  9 18  1  0  0  0  0
 10 11  1  0  0  0  0
 10 19  1  0  0  0  0
 11 12  2  0  0  0  0
 11 20  1  0  0  0  0
 12 21  1  0  0  0  0
M  CHG  1   6   1
M  END
