4u6r_ligand
 OpenBabel08222323353D

 75 80  0  0  1  0  0  0  0  0999 V2000
   -5.8090  -25.0130   -1.3470 C   0  0  0  0  0  0  0  0  0  0  0  0
   -6.0270  -26.3520   -1.9840 C   0  0  0  0  0  0  0  0  0  0  0  0
   -5.8250  -26.2620   -3.4490 C   0  0  2  0  0  0  0  0  0  0  0  0
   -5.8460  -27.5850   -3.9960 N   0  3  0  0  0  0  0  0  0  0  0  0
   -4.4990  -25.6340   -3.7900 C   0  0  0  0  0  0  0  0  0  0  0  0
   -4.2310  -24.3560   -3.0500 C   0  0  0  0  0  0  0  0  0  0  0  0
   -4.4170  -24.5260   -1.5680 C   0  0  1  0  0  0  0  0  0  0  0  0
   -4.2350  -23.2890   -0.8490 N   0  0  0  0  0  0  0  0  0  0  0  0
   -3.0750  -22.7990   -0.5950 C   0  0  0  0  0  0  0  0  0  0  0  0
   -2.0490  -23.5780   -0.5640 N   0  0  0  0  0  0  0  0  0  0  0  0
   -2.9510  -21.5190   -0.3670 N   0  0  0  0  0  0  0  0  0  0  0  0
   -1.8020  -20.9870   -0.1180 C   0  0  0  0  0  0  0  0  0  0  0  0
   -0.7070  -21.7950   -0.0750 C   0  0  0  0  0  0  0  0  0  0  0  0
   -0.8610  -23.1290   -0.3210 C   0  0  0  0  0  0  0  0  0  0  0  0
    0.1590  -24.0500   -0.2680 C   0  0  0  0  0  0  0  0  0  0  0  0
   -0.2250  -25.3510   -0.1510 C   0  0  0  0  0  0  0  0  0  0  0  0
    0.7090  -26.3290   -0.0710 C   0  0  0  0  0  0  0  0  0  0  0  0
    2.0040  -25.9490   -0.0900 C   0  0  0  0  0  0  0  0  0  0  0  0
    2.3530  -24.7040   -0.1800 N   0  0  0  0  0  0  0  0  0  0  0  0
    1.4900  -23.7330   -0.2620 C   0  0  0  0  0  0  0  0  0  0  0  0
    1.8780  -22.4560   -0.3680 O   0  0  0  0  0  0  0  0  0  0  0  0
    3.0820  -22.0140   -0.0530 C   0  0  0  0  0  0  0  0  0  0  0  0
    4.0670  -21.8960   -0.9860 C   0  0  0  0  0  0  0  0  0  0  0  0
    3.8770  -22.3310   -2.4000 C   0  0  0  0  0  0  0  0  0  0  0  0
    5.2910  -21.4320   -0.6350 C   0  0  0  0  0  0  0  0  0  0  0  0
    3.3200  -21.5910    1.2020 C   0  0  0  0  0  0  0  0  0  0  0  0
    2.3310  -21.6780    2.1300 C   0  0  0  0  0  0  0  0  0  0  0  0
    2.5390  -21.2870    3.4220 C   0  0  0  0  0  0  0  0  0  0  0  0
    3.7520  -20.7830    3.7820 C   0  0  0  0  0  0  0  0  0  0  0  0
    4.7520  -20.6930    2.8490 C   0  0  0  0  0  0  0  0  0  0  0  0
    4.5380  -21.1020    1.5620 C   0  0  0  0  0  0  0  0  0  0  0  0
    5.5370  -21.0210    0.6330 C   0  0  0  0  0  0  0  0  0  0  0  0
    6.7070  -20.5460    0.9210 N   0  0  0  0  0  0  0  0  0  0  0  0
    7.1740  -19.1170    0.3540 S   0  0  0  0  0  0  0  0  0  0  0  0
    6.3990  -18.6530   -0.7860 O   0  0  0  0  0  0  0  0  0  0  0  0
    8.5580  -19.2170    0.0800 O   0  0  0  0  0  0  0  0  0  0  0  0
    6.9240  -17.8440    1.3730 C   0  0  0  0  0  0  0  0  0  0  0  0
    5.9650  -16.9700    0.9380 C   0  0  0  0  0  0  0  0  0  0  0  0
    5.6800  -15.8730    1.7120 C   0  0  0  0  0  0  0  0  0  0  0  0
    6.3310  -15.6600    2.9020 C   0  0  0  0  0  0  0  0  0  0  0  0
    7.2830  -16.5280    3.3320 C   0  0  0  0  0  0  0  0  0  0  0  0
    7.5720  -17.6060    2.5660 C   0  0  0  0  0  0  0  0  0  0  0  0
    8.7560  -18.6210    3.1830 Cl  0  0  0  0  0  0  0  0  0  0  0  0
   -5.9913  -25.0971   -0.2655 H   0  0  0  0  0  0  0  0  0  0  0  0
   -6.5145  -24.2902   -1.7827 H   0  0  0  0  0  0  0  0  0  0  0  0
   -7.0539  -26.6887   -1.7791 H   0  0  0  0  0  0  0  0  0  0  0  0
   -5.3131  -27.0751   -1.5628 H   0  0  0  0  0  0  0  0  0  0  0  0
   -6.6349  -25.6620   -3.8894 H   0  0  0  0  0  0  0  0  0  0  0  0
   -5.7095  -27.5383   -4.9936 H   0  0  0  0  0  0  0  0  0  0  0  0
   -6.7354  -28.0162   -3.7984 H   0  0  0  0  0  0  0  0  0  0  0  0
   -5.1079  -28.1319   -3.5811 H   0  0  0  0  0  0  0  0  0  0  0  0
   -4.4824  -25.4210   -4.8690 H   0  0  0  0  0  0  0  0  0  0  0  0
   -3.7015  -26.3511   -3.5455 H   0  0  0  0  0  0  0  0  0  0  0  0
   -4.9249  -23.5823   -3.4105 H   0  0  0  0  0  0  0  0  0  0  0  0
   -3.1957  -24.0402   -3.2460 H   0  0  0  0  0  0  0  0  0  0  0  0
   -3.6955  -25.2672   -1.1937 H   0  0  0  0  0  0  0  0  0  0  0  0
   -5.0689  -22.7778   -0.5261 H   0  0  0  0  0  0  0  0  0  0  0  0
   -1.7106  -19.9205    0.0531 H   0  0  0  0  0  0  0  0  0  0  0  0
    0.2711  -21.3858    0.1509 H   0  0  0  0  0  0  0  0  0  0  0  0
   -1.2786  -25.6044   -0.1218 H   0  0  0  0  0  0  0  0  0  0  0  0
    0.4280  -27.3732    0.0051 H   0  0  0  0  0  0  0  0  0  0  0  0
    2.7755  -26.7080   -0.0281 H   0  0  0  0  0  0  0  0  0  0  0  0
    4.7992  -22.1417   -2.9689 H   0  0  0  0  0  0  0  0  0  0  0  0
    3.0468  -21.7661   -2.8490 H   0  0  0  0  0  0  0  0  0  0  0  0
    3.6449  -23.4059   -2.4249 H   0  0  0  0  0  0  0  0  0  0  0  0
    6.0812  -21.3891   -1.3758 H   0  0  0  0  0  0  0  0  0  0  0  0
    1.3606  -22.0643    1.8399 H   0  0  0  0  0  0  0  0  0  0  0  0
    1.7453  -21.3771    4.1548 H   0  0  0  0  0  0  0  0  0  0  0  0
    3.9255  -20.4550    4.8005 H   0  0  0  0  0  0  0  0  0  0  0  0
    5.7193  -20.2948    3.1334 H   0  0  0  0  0  0  0  0  0  0  0  0
    7.3261  -21.0741    1.5023 H   0  0  0  0  0  0  0  0  0  0  0  0
    5.4425  -17.1402    0.0036 H   0  0  0  0  0  0  0  0  0  0  0  0
    4.9302  -15.1645    1.3790 H   0  0  0  0  0  0  0  0  0  0  0  0
    6.0832  -14.7925    3.5029 H   0  0  0  0  0  0  0  0  0  0  0  0
    7.8009  -16.3609    4.2695 H   0  0  0  0  0  0  0  0  0  0  0  0
  1  2  1  0  0  0  0
  1  7  1  0  0  0  0
  1 44  1  0  0  0  0
  1 45  1  0  0  0  0
  2  3  1  0  0  0  0
  2 46  1  0  0  0  0
  2 47  1  0  0  0  0
  3  4  1  0  0  0  0
  3  5  1  0  0  0  0
  3 48  1  6  0  0  0
  4 49  1  0  0  0  0
  4 50  1  0  0  0  0
  4 51  1  0  0  0  0
  5  6  1  0  0  0  0
  5 52  1  0  0  0  0
  5 53  1  0  0  0  0
  6  7  1  0  0  0  0
  6 54  1  0  0  0  0
  6 55  1  0  0  0  0
  7  8  1  0  0  0  0
  7 56  1  1  0  0  0
  8  9  1  0  0  0  0
  8 57  1  0  0  0  0
  9 10  2  0  0  0  0
  9 11  1  0  0  0  0
 10 14  1  0  0  0  0
 11 12  2  0  0  0  0
 12 13  1  0  0  0  0
 12 58  1  0  0  0  0
 13 14  2  0  0  0  0
 13 59  1  0  0  0  0
 14 15  1  0  0  0  0
 15 16  2  0  0  0  0
 15 20  1  0  0  0  0
 16 17  1  0  0  0  0
 16 60  1  0  0  0  0
 17 18  2  0  0  0  0
 17 61  1  0  0  0  0
 18 19  1  0  0  0  0
 18 62  1  0  0  0  0
 19 20  2  0  0  0  0
 20 21  1  0  0  0  0
 21 22  1  0  0  0  0
 22 23  2  0  0  0  0
 22 26  1  0  0  0  0
 23 24  1  0  0  0  0
 23 25  1  0  0  0  0
 24 63  1  0  0  0  0
 24 64  1  0  0  0  0
 24 65  1  0  0  0  0
 25 32  2  0  0  0  0
 25 66  1  0  0  0  0
 26 27  2  0  0  0  0
 26 31  1  0  0  0  0
 27 28  1  0  0  0  0
 27 67  1  0  0  0  0
 28 29  2  0  0  0  0
 28 68  1  0  0  0  0
 29 30  1  0  0  0  0
 29 69  1  0  0  0  0
 30 31  2  0  0  0  0
 30 70  1  0  0  0  0
 31 32  1  0  0  0  0
 32 33  1  0  0  0  0
 33 34  1  0  0  0  0
 33 71  1  0  0  0  0
 34 35  2  0  0  0  0
 34 36  2  0  0  0  0
 34 37  1  0  0  0  0
 37 38  2  0  0  0  0
 37 42  1  0  0  0  0
 38 39  1  0  0  0  0
 38 72  1  0  0  0  0
 39 40  2  0  0  0  0
 39 73  1  0  0  0  0
 40 41  1  0  0  0  0
 40 74  1  0  0  0  0
 41 42  2  0  0  0  0
 41 75  1  0  0  0  0
 42 43  1  0  0  0  0
M  CHG  1   4   1
M  END
