4u6x_ligand
 OpenBabel08222323353D

171171  0  0  1  0  0  0  0  0999 V2000
  -15.2970    0.9290    8.4990 N   0  3  0  0  0  0  0  0  0  0  0  0
  -15.8100    2.2110    8.0320 C   0  0  2  0  0  0  0  0  0  0  0  0
  -15.4450    3.3340    9.0010 C   0  0  0  0  0  0  0  0  0  0  0  0
  -15.4280    3.1440   10.2260 O   0  0  0  0  0  0  0  0  0  0  0  0
  -17.3200    2.1450    7.8380 C   0  0  0  0  0  0  0  0  0  0  0  0
  -15.1640    4.5110    8.4490 N   0  0  0  0  0  0  0  0  0  0  0  0
  -14.7750    5.6670    9.2550 C   0  0  2  0  0  0  0  0  0  0  0  0
  -15.8950    6.1460   10.1680 C   0  0  0  0  0  0  0  0  0  0  0  0
  -17.0910    5.9620    9.8810 O   0  0  0  0  0  0  0  0  0  0  0  0
  -14.3620    6.8230    8.3340 C   0  0  0  0  0  0  0  0  0  0  0  0
  -13.0870    6.6380    7.5200 C   0  0  0  0  0  0  0  0  0  0  0  0
  -12.9850    7.7680    6.4870 C   0  0  0  0  0  0  0  0  0  0  0  0
  -11.8710    6.6600    8.4440 C   0  0  0  0  0  0  0  0  0  0  0  0
  -15.5180    6.7900   11.2700 N   0  0  0  0  0  0  0  0  0  0  0  0
  -16.5270    7.4290   12.0970 C   0  0  2  0  0  0  0  0  0  0  0  0
  -17.1690    8.5670   11.3050 C   0  0  0  0  0  0  0  0  0  0  0  0
  -16.5040    9.2310   10.4990 O   0  0  0  0  0  0  0  0  0  0  0  0
  -15.9250    7.9680   13.3950 C   0  0  0  0  0  0  0  0  0  0  0  0
  -16.9990    8.5110   14.3300 C   0  0  0  0  0  0  0  0  0  0  0  0
  -16.4260    9.2790   15.4960 C   0  0  0  0  0  0  0  0  0  0  0  0
  -15.2020    9.3380   15.6730 O   0  0  0  0  0  0  0  0  0  0  0  0
  -17.3030    9.8790   16.3000 N   0  0  0  0  0  0  0  0  0  0  0  0
  -18.4600    8.7900   11.5130 N   0  0  0  0  0  0  0  0  0  0  0  0
  -19.1420    9.8600   10.8020 C   0  0  2  0  0  0  0  0  0  0  0  0
  -19.3650   11.0110   11.7790 C   0  0  0  0  0  0  0  0  0  0  0  0
  -20.4710   11.2160   12.2660 O   0  0  0  0  0  0  0  0  0  0  0  0
  -20.4700    9.3610   10.2310 C   0  0  0  0  0  0  0  0  0  0  0  0
  -20.9320   10.1700    9.0220 C   0  0  0  0  0  0  0  0  0  0  0  0
  -20.4580   11.3170    8.8400 O   0  5  0  0  0  0  0  0  0  0  0  0
  -21.7820    9.6630    8.2570 O   0  0  0  0  0  0  0  0  0  0  0  0
  -18.2960   11.7420   12.0760 N   0  0  0  0  0  0  0  0  0  0  0  0
  -18.3480   12.8160   13.0640 C   0  0  2  0  0  0  0  0  0  0  0  0
  -19.1610   14.0050   12.5600 C   0  0  0  0  0  0  0  0  0  0  0  0
  -20.0810   13.8460   11.7540 O   0  0  0  0  0  0  0  0  0  0  0  0
  -16.9330   13.2530   13.4530 C   0  0  0  0  0  0  0  0  0  0  0  0
  -21.8720   16.6500   17.1760 N   0  3  0  0  0  0  0  0  0  0  0  0
  -21.1160   17.2750   16.0960 C   0  0  2  0  0  0  0  0  0  0  0  0
  -19.6370   16.9010   16.1170 C   0  0  0  0  0  0  0  0  0  0  0  0
  -19.1690   16.2070   17.0240 O   0  0  0  0  0  0  0  0  0  0  0  0
  -21.2540   18.7970   16.1490 C   0  0  0  0  0  0  0  0  0  0  0  0
  -22.6140   19.3120   15.7140 C   0  0  0  0  0  0  0  0  0  0  0  0
  -22.4850   20.6280   14.9530 C   0  0  0  0  0  0  0  0  0  0  0  0
  -23.8470   21.1680   14.5280 C   0  0  0  0  0  0  0  0  0  0  0  0
  -23.7390   22.5080   13.8760 N   0  3  0  0  0  0  0  0  0  0  0  0
  -18.9110   17.3670   15.1020 N   0  0  0  0  0  0  0  0  0  0  0  0
  -17.4640   17.1900   15.0190 C   0  0  2  0  0  0  0  0  0  0  0  0
  -16.7850   17.7470   16.2680 C   0  0  0  0  0  0  0  0  0  0  0  0
  -17.2700   18.6960   16.8860 O   0  0  0  0  0  0  0  0  0  0  0  0
  -16.9110   17.9130   13.7870 C   0  0  0  0  0  0  0  0  0  0  0  0
  -17.3460   17.3340   12.4370 C   0  0  0  0  0  0  0  0  0  0  0  0
  -16.1760   16.7590   11.6490 C   0  0  0  0  0  0  0  0  0  0  0  0
  -16.3120   16.5570   10.4150 O   0  5  0  0  0  0  0  0  0  0  0  0
  -15.1170   16.5060   12.2710 O   0  0  0  0  0  0  0  0  0  0  0  0
  -15.6550   17.1540   16.6350 N   0  0  0  0  0  0  0  0  0  0  0  0
  -14.8940   17.6090   17.7970 C   0  0  2  0  0  0  0  0  0  0  0  0
  -13.5200   18.0300   17.3210 C   0  0  0  0  0  0  0  0  0  0  0  0
  -12.9170   17.3600   16.4620 O   0  0  0  0  0  0  0  0  0  0  0  0
  -14.7690   16.4780   18.8170 C   0  0  0  0  0  0  0  0  0  0  0  0
  -14.3980   15.1630   18.1840 C   0  0  0  0  0  0  0  0  0  0  0  0
  -15.3690   14.3520   17.6180 C   0  0  0  0  0  0  0  0  0  0  0  0
  -13.0780   14.7310   18.1520 C   0  0  0  0  0  0  0  0  0  0  0  0
  -15.0390   13.1520   17.0370 C   0  0  0  0  0  0  0  0  0  0  0  0
  -12.7330   13.5310   17.5710 C   0  0  0  0  0  0  0  0  0  0  0  0
  -13.7190   12.7440   17.0170 C   0  0  0  0  0  0  0  0  0  0  0  0
  -13.3880   11.5450   16.4330 O   0  0  0  0  0  0  0  0  0  0  0  0
  -13.0260   19.1350   17.8730 N   0  0  0  0  0  0  0  0  0  0  0  0
  -11.7690   19.7160   17.4230 C   0  0  2  0  0  0  0  0  0  0  0  0
  -10.7720   19.8580   18.5560 C   0  0  0  0  0  0  0  0  0  0  0  0
  -11.1540   20.1020   19.7020 O   0  0  0  0  0  0  0  0  0  0  0  0
  -12.0230   21.0960   16.7980 C   0  0  0  0  0  0  0  0  0  0  0  0
  -13.0400   21.0740   15.7070 C   0  0  0  0  0  0  0  0  0  0  0  0
  -12.6690   20.7490   14.4070 C   0  0  0  0  0  0  0  0  0  0  0  0
  -14.3720   21.3470   15.9760 C   0  0  0  0  0  0  0  0  0  0  0  0
  -13.6240   20.6980   13.3830 C   0  0  0  0  0  0  0  0  0  0  0  0
  -15.3210   21.3120   14.9660 C   0  0  0  0  0  0  0  0  0  0  0  0
  -14.9480   20.9830   13.6680 C   0  0  0  0  0  0  0  0  0  0  0  0
   -9.4900   19.6920   18.2360 N   0  0  0  0  0  0  0  0  0  0  0  0
   -8.4310   19.9310   19.2190 C   0  0  2  0  0  0  0  0  0  0  0  0
   -8.5830   21.3280   19.8420 C   0  0  0  0  0  0  0  0  0  0  0  0
   -8.9640   22.2840   19.1600 O   0  5  0  0  0  0  0  0  0  0  0  0
   -7.0440   19.7810   18.5700 C   0  0  2  0  0  0  0  0  0  0  0  0
   -6.7830   18.3150   18.1760 C   0  0  0  0  0  0  0  0  0  0  0  0
   -5.9230   20.3320   19.4810 C   0  0  0  0  0  0  0  0  0  0  0  0
   -6.7800   17.3220   19.3280 C   0  0  0  0  0  0  0  0  0  0  0  0
   -8.3350   21.5570   21.0380 O   0  0  0  0  0  0  0  0  0  0  0  0
  -15.5508    0.2066    7.8434 H   0  0  0  0  0  0  0  0  0  0  0  0
  -15.6925    0.7175    9.4017 H   0  0  0  0  0  0  0  0  0  0  0  0
  -14.2930    0.9763    8.5747 H   0  0  0  0  0  0  0  0  0  0  0  0
  -15.3464    2.4323    7.0594 H   0  0  0  0  0  0  0  0  0  0  0  0
  -17.6874    3.1202    7.4860 H   0  0  0  0  0  0  0  0  0  0  0  0
  -17.8020    1.8952    8.7947 H   0  0  0  0  0  0  0  0  0  0  0  0
  -17.5606    1.3720    7.0933 H   0  0  0  0  0  0  0  0  0  0  0  0
  -15.2204    4.6079    7.4553 H   0  0  0  0  0  0  0  0  0  0  0  0
  -13.9155    5.3798    9.8786 H   0  0  0  0  0  0  0  0  0  0  0  0
  -14.2279    7.7160    8.9622 H   0  0  0  0  0  0  0  0  0  0  0  0
  -15.1860    6.9934    7.6255 H   0  0  0  0  0  0  0  0  0  0  0  0
  -13.1253    5.6705    6.9980 H   0  0  0  0  0  0  0  0  0  0  0  0
  -12.0666    7.6416    5.8949 H   0  0  0  0  0  0  0  0  0  0  0  0
  -12.9562    8.7376    7.0058 H   0  0  0  0  0  0  0  0  0  0  0  0
  -13.8589    7.7349    5.8198 H   0  0  0  0  0  0  0  0  0  0  0  0
  -11.9548    5.8465    9.1796 H   0  0  0  0  0  0  0  0  0  0  0  0
  -11.8266    7.6257    8.9688 H   0  0  0  0  0  0  0  0  0  0  0  0
  -10.9559    6.5235    7.8491 H   0  0  0  0  0  0  0  0  0  0  0  0
  -14.5522    6.8335   11.5256 H   0  0  0  0  0  0  0  0  0  0  0  0
  -17.2990    6.6875   12.3504 H   0  0  0  0  0  0  0  0  0  0  0  0
  -15.2208    8.7774   13.1525 H   0  0  0  0  0  0  0  0  0  0  0  0
  -15.3873    7.1543   13.9038 H   0  0  0  0  0  0  0  0  0  0  0  0
  -17.5854    7.6660   14.7200 H   0  0  0  0  0  0  0  0  0  0  0  0
  -17.6573    9.1809   13.7575 H   0  0  0  0  0  0  0  0  0  0  0  0
  -16.9813   10.4024   17.0890 H   0  0  0  0  0  0  0  0  0  0  0  0
  -18.2829    9.8059   16.1143 H   0  0  0  0  0  0  0  0  0  0  0  0
  -18.9660    8.2205   12.1608 H   0  0  0  0  0  0  0  0  0  0  0  0
  -18.5087   10.2070    9.9723 H   0  0  0  0  0  0  0  0  0  0  0  0
  -21.2384    9.4300   11.0151 H   0  0  0  0  0  0  0  0  0  0  0  0
  -20.3499    8.3108    9.9267 H   0  0  0  0  0  0  0  0  0  0  0  0
  -17.4319   11.5514   11.6101 H   0  0  0  0  0  0  0  0  0  0  0  0
  -18.8446   12.4246   13.9641 H   0  0  0  0  0  0  0  0  0  0  0  0
  -18.9259   15.0068   12.9165 H   0  0  0  0  0  0  0  0  0  0  0  0
  -16.9904   14.0614   14.1968 H   0  0  0  0  0  0  0  0  0  0  0  0
  -16.4020   13.6137   12.5597 H   0  0  0  0  0  0  0  0  0  0  0  0
  -16.3901   12.3979   13.8820 H   0  0  0  0  0  0  0  0  0  0  0  0
  -22.8385   16.9297   17.1151 H   0  0  0  0  0  0  0  0  0  0  0  0
  -21.4932   16.9412   18.0636 H   0  0  0  0  0  0  0  0  0  0  0  0
  -21.8067   15.6474   17.0954 H   0  0  0  0  0  0  0  0  0  0  0  0
  -21.5406   16.9224   15.1445 H   0  0  0  0  0  0  0  0  0  0  0  0
  -20.4913   19.2361   15.4892 H   0  0  0  0  0  0  0  0  0  0  0  0
  -21.0758   19.1241   17.1840 H   0  0  0  0  0  0  0  0  0  0  0  0
  -23.2394   19.4719   16.6047 H   0  0  0  0  0  0  0  0  0  0  0  0
  -23.0893   18.5648   15.0615 H   0  0  0  0  0  0  0  0  0  0  0  0
  -21.8710   20.4624   14.0555 H   0  0  0  0  0  0  0  0  0  0  0  0
  -21.9942   21.3686   15.6016 H   0  0  0  0  0  0  0  0  0  0  0  0
  -24.4874   21.2567   15.4180 H   0  0  0  0  0  0  0  0  0  0  0  0
  -24.3026   20.4629   13.8172 H   0  0  0  0  0  0  0  0  0  0  0  0
  -24.6575   22.8279   13.6113 H   0  0  0  0  0  0  0  0  0  0  0  0
  -23.1587   22.4364   13.0549 H   0  0  0  0  0  0  0  0  0  0  0  0
  -23.3280   23.1638   14.5218 H   0  0  0  0  0  0  0  0  0  0  0  0
  -19.3765   17.8586   14.3661 H   0  0  0  0  0  0  0  0  0  0  0  0
  -17.2415   16.1159   14.9370 H   0  0  0  0  0  0  0  0  0  0  0  0
  -15.8127   17.8745   13.8350 H   0  0  0  0  0  0  0  0  0  0  0  0
  -17.2435   18.9607   13.8302 H   0  0  0  0  0  0  0  0  0  0  0  0
  -17.8130   18.1337   11.8433 H   0  0  0  0  0  0  0  0  0  0  0  0
  -18.0793   16.5337   12.6154 H   0  0  0  0  0  0  0  0  0  0  0  0
  -15.3165   16.3774   16.1036 H   0  0  0  0  0  0  0  0  0  0  0  0
  -15.4042   18.4649   18.2630 H   0  0  0  0  0  0  0  0  0  0  0  0
  -15.7337   16.3607   19.3324 H   0  0  0  0  0  0  0  0  0  0  0  0
  -13.9929   16.7478   19.5484 H   0  0  0  0  0  0  0  0  0  0  0  0
  -16.4052   14.6698   17.6341 H   0  0  0  0  0  0  0  0  0  0  0  0
  -12.3050   15.3502   18.5927 H   0  0  0  0  0  0  0  0  0  0  0  0
  -15.8092   12.5290   16.5969 H   0  0  0  0  0  0  0  0  0  0  0  0
  -11.6980   13.2094   17.5498 H   0  0  0  0  0  0  0  0  0  0  0  0
  -12.9774   10.9822   17.0788 H   0  0  0  0  0  0  0  0  0  0  0  0
  -13.5301   19.5772   18.6148 H   0  0  0  0  0  0  0  0  0  0  0  0
  -11.3360   19.0537   16.6589 H   0  0  0  0  0  0  0  0  0  0  0  0
  -11.0755   21.4710   16.3838 H   0  0  0  0  0  0  0  0  0  0  0  0
  -12.3733   21.7772   17.5874 H   0  0  0  0  0  0  0  0  0  0  0  0
  -11.6305   20.5329   14.1835 H   0  0  0  0  0  0  0  0  0  0  0  0
  -14.6752   21.5907   16.9878 H   0  0  0  0  0  0  0  0  0  0  0  0
  -13.3276   20.4369   12.3735 H   0  0  0  0  0  0  0  0  0  0  0  0
  -16.3566   21.5418   15.1891 H   0  0  0  0  0  0  0  0  0  0  0  0
  -15.6925   20.9497   12.8808 H   0  0  0  0  0  0  0  0  0  0  0  0
   -9.2469   19.3999   17.3110 H   0  0  0  0  0  0  0  0  0  0  0  0
   -8.5234   19.1811   20.0185 H   0  0  0  0  0  0  0  0  0  0  0  0
   -7.0423   20.3794   17.6470 H   0  0  0  0  0  0  0  0  0  0  0  0
   -5.8012   18.2656   17.6825 H   0  0  0  0  0  0  0  0  0  0  0  0
   -7.5659   18.0095   17.4663 H   0  0  0  0  0  0  0  0  0  0  0  0
   -6.1428   21.3780   19.7411 H   0  0  0  0  0  0  0  0  0  0  0  0
   -4.9608   20.2806   18.9504 H   0  0  0  0  0  0  0  0  0  0  0  0
   -5.8678   19.7296   20.3997 H   0  0  0  0  0  0  0  0  0  0  0  0
   -6.5858   16.3111   18.9402 H   0  0  0  0  0  0  0  0  0  0  0  0
   -7.7584   17.3402   19.8304 H   0  0  0  0  0  0  0  0  0  0  0  0
   -5.9936   17.5963   20.0466 H   0  0  0  0  0  0  0  0  0  0  0  0
  1  2  1  0  0  0  0
  1 86  1  0  0  0  0
  1 87  1  0  0  0  0
  1 88  1  0  0  0  0
  2  3  1  0  0  0  0
  2  5  1  0  0  0  0
  2 89  1  6  0  0  0
  3  4  2  0  0  0  0
  3  6  1  0  0  0  0
  5 90  1  0  0  0  0
  5 91  1  0  0  0  0
  5 92  1  0  0  0  0
  6  7  1  0  0  0  0
  6 93  1  0  0  0  0
  7  8  1  0  0  0  0
  7 10  1  0  0  0  0
  7 94  1  1  0  0  0
  8  9  2  0  0  0  0
  8 14  1  0  0  0  0
 10 11  1  0  0  0  0
 10 95  1  0  0  0  0
 10 96  1  0  0  0  0
 11 12  1  0  0  0  0
 11 13  1  0  0  0  0
 11 97  1  0  0  0  0
 12 98  1  0  0  0  0
 12 99  1  0  0  0  0
 12100  1  0  0  0  0
 13101  1  0  0  0  0
 13102  1  0  0  0  0
 13103  1  0  0  0  0
 14 15  1  0  0  0  0
 14104  1  0  0  0  0
 15 16  1  0  0  0  0
 15 18  1  0  0  0  0
 15105  1  1  0  0  0
 16 17  2  0  0  0  0
 16 23  1  0  0  0  0
 18 19  1  0  0  0  0
 18106  1  0  0  0  0
 18107  1  0  0  0  0
 19 20  1  0  0  0  0
 19108  1  0  0  0  0
 19109  1  0  0  0  0
 20 21  2  0  0  0  0
 20 22  1  0  0  0  0
 22110  1  0  0  0  0
 22111  1  0  0  0  0
 23 24  1  0  0  0  0
 23112  1  0  0  0  0
 24 25  1  0  0  0  0
 24 27  1  0  0  0  0
 24113  1  6  0  0  0
 25 26  2  0  0  0  0
 25 31  1  0  0  0  0
 27 28  1  0  0  0  0
 27114  1  0  0  0  0
 27115  1  0  0  0  0
 28 29  1  0  0  0  0
 28 30  2  0  0  0  0
 31 32  1  0  0  0  0
 31116  1  0  0  0  0
 32 33  1  0  0  0  0
 32 35  1  0  0  0  0
 32117  1  1  0  0  0
 33 34  2  0  0  0  0
 33118  1  0  0  0  0
 35119  1  0  0  0  0
 35120  1  0  0  0  0
 35121  1  0  0  0  0
 36 37  1  0  0  0  0
 36122  1  0  0  0  0
 36123  1  0  0  0  0
 36124  1  0  0  0  0
 37 38  1  0  0  0  0
 37 40  1  0  0  0  0
 37125  1  6  0  0  0
 38 39  2  0  0  0  0
 38 45  1  0  0  0  0
 40 41  1  0  0  0  0
 40126  1  0  0  0  0
 40127  1  0  0  0  0
 41 42  1  0  0  0  0
 41128  1  0  0  0  0
 41129  1  0  0  0  0
 42 43  1  0  0  0  0
 42130  1  0  0  0  0
 42131  1  0  0  0  0
 43 44  1  0  0  0  0
 43132  1  0  0  0  0
 43133  1  0  0  0  0
 44134  1  0  0  0  0
 44135  1  0  0  0  0
 44136  1  0  0  0  0
 45 46  1  0  0  0  0
 45137  1  0  0  0  0
 46 47  1  0  0  0  0
 46 49  1  0  0  0  0
 46138  1  6  0  0  0
 47 48  2  0  0  0  0
 47 54  1  0  0  0  0
 49 50  1  0  0  0  0
 49139  1  0  0  0  0
 49140  1  0  0  0  0
 50 51  1  0  0  0  0
 50141  1  0  0  0  0
 50142  1  0  0  0  0
 51 52  1  0  0  0  0
 51 53  2  0  0  0  0
 54 55  1  0  0  0  0
 54143  1  0  0  0  0
 55 56  1  0  0  0  0
 55 58  1  0  0  0  0
 55144  1  1  0  0  0
 56 57  2  0  0  0  0
 56 66  1  0  0  0  0
 58 59  1  0  0  0  0
 58145  1  0  0  0  0
 58146  1  0  0  0  0
 59 60  2  0  0  0  0
 59 61  1  0  0  0  0
 60 62  1  0  0  0  0
 60147  1  0  0  0  0
 61 63  2  0  0  0  0
 61148  1  0  0  0  0
 62 64  2  0  0  0  0
 62149  1  0  0  0  0
 63 64  1  0  0  0  0
 63150  1  0  0  0  0
 64 65  1  0  0  0  0
 65151  1  0  0  0  0
 66 67  1  0  0  0  0
 66152  1  0  0  0  0
 67 68  1  0  0  0  0
 67 70  1  0  0  0  0
 67153  1  6  0  0  0
 68 69  2  0  0  0  0
 68 77  1  0  0  0  0
 70 71  1  0  0  0  0
 70154  1  0  0  0  0
 70155  1  0  0  0  0
 71 72  2  0  0  0  0
 71 73  1  0  0  0  0
 72 74  1  0  0  0  0
 72156  1  0  0  0  0
 73 75  2  0  0  0  0
 73157  1  0  0  0  0
 74 76  2  0  0  0  0
 74158  1  0  0  0  0
 75 76  1  0  0  0  0
 75159  1  0  0  0  0
 76160  1  0  0  0  0
 77 78  1  0  0  0  0
 77161  1  0  0  0  0
 78 79  1  0  0  0  0
 78 81  1  0  0  0  0
 78162  1  1  0  0  0
 79 80  1  0  0  0  0
 79 85  2  0  0  0  0
 81 82  1  0  0  0  0
 81 83  1  0  0  0  0
 81163  1  6  0  0  0
 82 84  1  0  0  0  0
 82164  1  0  0  0  0
 82165  1  0  0  0  0
 83166  1  0  0  0  0
 83167  1  0  0  0  0
 83168  1  0  0  0  0
 84169  1  0  0  0  0
 84170  1  0  0  0  0
 84171  1  0  0  0  0
M  CHG  6   1   1  29  -1  36   1  44   1  52  -1  80  -1
M  END
