4u7t_ligand
 OpenBabel08222323353D

171170  0  0  1  0  0  0  0  0999 V2000
   16.0830  106.0810   -0.0920 N   0  3  0  0  0  0  0  0  0  0  0  0
   14.8800  105.6130   -0.7630 C   0  0  2  0  0  0  0  0  0  0  0  0
   13.9970  104.8520    0.2020 C   0  0  0  0  0  0  0  0  0  0  0  0
   13.5350  105.4020    1.1990 O   0  0  0  0  0  0  0  0  0  0  0  0
   15.2350  104.7320   -1.9700 C   0  0  0  0  0  0  0  0  0  0  0  0
   13.7730  103.5780   -0.1020 N   0  0  0  0  0  0  0  0  0  0  0  0
   12.9180  102.7290    0.7160 C   0  0  2  0  0  0  0  0  0  0  0  0
   13.5280  102.3970    2.0720 C   0  0  0  0  0  0  0  0  0  0  0  0
   14.7480  102.3970    2.2420 O   0  0  0  0  0  0  0  0  0  0  0  0
   12.5830  101.4500   -0.0370 C   0  0  0  0  0  0  0  0  0  0  0  0
   11.7340  101.6920   -1.2720 C   0  0  0  0  0  0  0  0  0  0  0  0
   11.4120  100.3780   -1.9600 C   0  0  0  0  0  0  0  0  0  0  0  0
   10.8650   99.4100   -1.0140 N   0  0  0  0  0  0  0  0  0  0  0  0
   10.8840   98.0940   -1.2000 C   0  0  0  0  0  3  0  0  0  0  0  0
   11.4330   97.5880   -2.2980 N   0  0  0  0  0  0  0  0  0  0  0  0
   10.3610   97.2860   -0.2860 N   0  0  0  0  0  0  0  0  0  0  0  0
   12.6530  102.1020    3.0290 N   0  0  0  0  0  0  0  0  0  0  0  0
   13.0380  101.9050    4.4220 C   0  0  2  0  0  0  0  0  0  0  0  0
   12.3350  100.7010    5.0240 C   0  0  0  0  0  0  0  0  0  0  0  0
   11.1370  100.5010    4.8060 O   0  0  0  0  0  0  0  0  0  0  0  0
   12.6960  103.1460    5.2660 C   0  0  2  0  0  0  0  0  0  0  0  0
   13.7330  104.1310    5.1300 O   0  0  0  0  0  0  0  0  0  0  0  0
   12.4850  102.7740    6.7460 C   0  0  0  0  0  0  0  0  0  0  0  0
   13.0770   99.8920    5.7740 N   0  0  0  0  0  0  0  0  0  0  0  0
   12.4450   98.8360    6.5550 C   0  0  2  0  0  0  0  0  0  0  0  0
   12.9390   98.8140    8.0010 C   0  0  0  0  0  0  0  0  0  0  0  0
   13.8030   99.6050    8.4020 O   0  0  0  0  0  0  0  0  0  0  0  0
   12.6620   97.4700    5.8950 C   0  0  0  0  0  0  0  0  0  0  0  0
   14.0390   96.8830    6.0790 C   0  0  0  0  0  0  0  0  0  0  0  0
   14.1340   95.5130    5.4300 C   0  0  0  0  0  0  0  0  0  0  0  0
   15.5450   94.9600    5.5000 C   0  0  0  0  0  0  0  0  0  0  0  0
   15.6150   93.5960    4.9050 N   0  3  0  0  0  0  0  0  0  0  0  0
   12.3570   97.9130    8.7830 N   0  0  0  0  0  0  0  0  0  0  0  0
   12.7460   97.7450   10.1690 C   0  0  2  0  0  0  0  0  0  0  0  0
   13.3080   96.3390   10.3550 C   0  0  0  0  0  0  0  0  0  0  0  0
   12.7360   95.3660    9.8620 O   0  0  0  0  0  0  0  0  0  0  0  0
   11.5530   97.9860   11.0920 C   0  0  0  0  0  0  0  0  0  0  0  0
   11.8920   98.7400   12.3760 C   0  0  0  0  0  0  0  0  0  0  0  0
   12.0460  100.2430   12.1650 C   0  0  0  0  0  0  0  0  0  0  0  0
   12.0050  100.7310   11.0350 O   0  0  0  0  0  0  0  0  0  0  0  0
   12.2120  100.9850   13.2620 N   0  0  0  0  0  0  0  0  0  0  0  0
   14.4170   96.2420   11.0850 N   0  0  0  0  0  0  0  0  0  0  0  0
   15.1770   94.9970   11.2230 C   0  0  2  0  0  0  0  0  0  0  0  0
   14.5420   93.9870   12.1680 C   0  0  0  0  0  0  0  0  0  0  0  0
   13.7860   94.3550   13.0690 O   0  0  0  0  0  0  0  0  0  0  0  0
   16.5880   95.2890   11.7350 C   0  0  2  0  0  0  0  0  0  0  0  0
   16.4870   96.0650   12.9350 O   0  0  0  0  0  0  0  0  0  0  0  0
   17.3790   96.0840   10.7020 C   0  0  0  0  0  0  0  0  0  0  0  0
   14.8840   92.7150   11.9820 N   0  0  0  0  0  0  0  0  0  0  0  0
   14.3930   91.6530   12.8630 C   0  0  2  0  0  0  0  0  0  0  0  0
   15.3340   91.4570   14.0470 C   0  0  0  0  0  0  0  0  0  0  0  0
   16.5170   91.1880   13.8480 O   0  0  0  0  0  0  0  0  0  0  0  0
   14.2290   90.3490   12.0940 C   0  0  0  0  0  0  0  0  0  0  0  0
   14.8120   91.5850   15.2700 N   0  0  0  0  0  0  0  0  0  0  0  0
   15.6540   91.5080   16.4700 C   0  0  2  0  0  0  0  0  0  0  0  0
   16.3350   90.1540   16.4890 C   0  0  0  0  0  0  0  0  0  0  0  0
   15.8110   89.1830   15.9300 O   0  0  0  0  0  0  0  0  0  0  0  0
   14.8610   91.7060   17.7690 C   0  0  0  0  0  0  0  0  0  0  0  0
   13.9750   90.5320   18.1600 C   0  0  0  0  0  0  0  0  0  0  0  0
   13.3760   90.7300   19.5440 C   0  0  0  0  0  0  0  0  0  0  0  0
   12.3700   91.7870   19.5730 N   0  0  0  0  0  0  0  0  0  0  0  0
   11.7450   92.1960   20.6730 C   0  0  0  0  0  3  0  0  0  0  0  0
   12.0280   91.6420   21.8460 N   0  0  0  0  0  0  0  0  0  0  0  0
   10.8370   93.1630   20.6020 N   0  0  0  0  0  0  0  0  0  0  0  0
   17.5020   90.0930   17.1240 N   0  0  0  0  0  0  0  0  0  0  0  0
   18.3970   88.9560   16.9480 C   0  0  2  0  0  0  0  0  0  0  0  0
   18.4640   88.0380   18.1710 C   0  0  0  0  0  0  0  0  0  0  0  0
   18.3040   88.4820   19.3110 O   0  0  0  0  0  0  0  0  0  0  0  0
   19.7930   89.4820   16.5980 C   0  0  0  0  0  0  0  0  0  0  0  0
   19.7540   90.8220   15.8550 C   0  0  0  0  0  0  0  0  0  0  0  0
   21.0990   91.5480   15.8320 C   0  0  0  0  0  0  0  0  0  0  0  0
   22.1050   90.9100   14.8840 C   0  0  0  0  0  0  0  0  0  0  0  0
   23.2870   91.8030   14.6310 N   0  3  0  0  0  0  0  0  0  0  0  0
   18.7360   86.7610   17.9130 N   0  0  0  0  0  0  0  0  0  0  0  0
   18.8300   85.7380   18.9540 C   0  0  2  0  0  0  0  0  0  0  0  0
   19.9410   86.0290   19.9670 C   0  0  0  0  0  0  0  0  0  0  0  0
   19.7180   86.6760   20.9900 O   0  5  0  0  0  0  0  0  0  0  0  0
   19.0600   84.3670   18.3120 C   0  0  0  0  0  0  0  0  0  0  0  0
   18.1210   84.1090   17.2750 O   0  0  0  0  0  0  0  0  0  0  0  0
   16.6591  106.5850   -0.7479 H   0  0  0  0  0  0  0  0  0  0  0  0
   16.5958  105.2914    0.2679 H   0  0  0  0  0  0  0  0  0  0  0  0
   15.8277  106.6909    0.6688 H   0  0  0  0  0  0  0  0  0  0  0  0
   14.3234  106.4896   -1.1260 H   0  0  0  0  0  0  0  0  0  0  0  0
   14.3108  104.3912   -2.4596 H   0  0  0  0  0  0  0  0  0  0  0  0
   15.8129  103.8599   -1.6301 H   0  0  0  0  0  0  0  0  0  0  0  0
   15.8355  105.3139   -2.6847 H   0  0  0  0  0  0  0  0  0  0  0  0
   14.2044  103.1906   -0.9168 H   0  0  0  0  0  0  0  0  0  0  0  0
   11.9812  103.2760    0.8979 H   0  0  0  0  0  0  0  0  0  0  0  0
   12.0337  100.7789    0.6396 H   0  0  0  0  0  0  0  0  0  0  0  0
   13.5228  100.9695   -0.3467 H   0  0  0  0  0  0  0  0  0  0  0  0
   12.2851  102.3403   -1.9691 H   0  0  0  0  0  0  0  0  0  0  0  0
   10.7963  102.1852   -0.9761 H   0  0  0  0  0  0  0  0  0  0  0  0
   12.3326   99.9684   -2.4012 H   0  0  0  0  0  0  0  0  0  0  0  0
   10.6738  100.5601   -2.7549 H   0  0  0  0  0  0  0  0  0  0  0  0
   10.4377   99.7692   -0.1484 H   0  0  0  0  0  0  0  0  0  0  0  0
   11.4483   96.5684   -2.4433 H   0  0  0  0  0  0  0  0  0  0  0  0
   11.8435   98.2151   -3.0045 H   0  0  0  0  0  0  0  0  0  0  0  0
    9.9352   97.6789    0.5656 H   0  0  0  0  0  0  0  0  0  0  0  0
   10.3809   96.2661   -0.4283 H   0  0  0  0  0  0  0  0  0  0  0  0
   11.6881  102.0112    2.7826 H   0  0  0  0  0  0  0  0  0  0  0  0
   14.1244  101.7368    4.4605 H   0  0  0  0  0  0  0  0  0  0  0  0
   11.7579  103.5752    4.8843 H   0  0  0  0  0  0  0  0  0  0  0  0
   13.5148  104.8932    5.6534 H   0  0  0  0  0  0  0  0  0  0  0  0
   12.2428  103.6800    7.3208 H   0  0  0  0  0  0  0  0  0  0  0  0
   13.4048  102.3216    7.1451 H   0  0  0  0  0  0  0  0  0  0  0  0
   11.6567  102.0549    6.8289 H   0  0  0  0  0  0  0  0  0  0  0  0
   14.0698  100.0081    5.8023 H   0  0  0  0  0  0  0  0  0  0  0  0
   11.3636   99.0365    6.5738 H   0  0  0  0  0  0  0  0  0  0  0  0
   12.4797   97.5800    4.8158 H   0  0  0  0  0  0  0  0  0  0  0  0
   11.9317   96.7660    6.3204 H   0  0  0  0  0  0  0  0  0  0  0  0
   14.2493   96.7876    7.1545 H   0  0  0  0  0  0  0  0  0  0  0  0
   14.7805   97.5522    5.6183 H   0  0  0  0  0  0  0  0  0  0  0  0
   13.8349   95.5961    4.3747 H   0  0  0  0  0  0  0  0  0  0  0  0
   13.4537   94.8231    5.9507 H   0  0  0  0  0  0  0  0  0  0  0  0
   15.8596   94.9095    6.5528 H   0  0  0  0  0  0  0  0  0  0  0  0
   16.2211   95.6286    4.9469 H   0  0  0  0  0  0  0  0  0  0  0  0
   16.5606   93.2519    4.9638 H   0  0  0  0  0  0  0  0  0  0  0  0
   15.3315   93.6360    3.9385 H   0  0  0  0  0  0  0  0  0  0  0  0
   15.0003   92.9771    5.4101 H   0  0  0  0  0  0  0  0  0  0  0  0
   11.6323   97.3359    8.4065 H   0  0  0  0  0  0  0  0  0  0  0  0
   13.5302   98.4770   10.4122 H   0  0  0  0  0  0  0  0  0  0  0  0
   11.1287   97.0094   11.3682 H   0  0  0  0  0  0  0  0  0  0  0  0
   10.8020   98.5689   10.5387 H   0  0  0  0  0  0  0  0  0  0  0  0
   12.8374   98.3440   12.7752 H   0  0  0  0  0  0  0  0  0  0  0  0
   11.0861   98.5697   13.1051 H   0  0  0  0  0  0  0  0  0  0  0  0
   12.3181  101.9763   13.1838 H   0  0  0  0  0  0  0  0  0  0  0  0
   12.2302  100.5496   14.1621 H   0  0  0  0  0  0  0  0  0  0  0  0
   14.7468   97.0570   11.5615 H   0  0  0  0  0  0  0  0  0  0  0  0
   15.2477   94.5370   10.2263 H   0  0  0  0  0  0  0  0  0  0  0  0
   17.1064   94.3417   11.9445 H   0  0  0  0  0  0  0  0  0  0  0  0
   17.3584   96.2532   13.2634 H   0  0  0  0  0  0  0  0  0  0  0  0
   18.3894   96.2837   11.0882 H   0  0  0  0  0  0  0  0  0  0  0  0
   16.8676   97.0373   10.5028 H   0  0  0  0  0  0  0  0  0  0  0  0
   17.4508   95.5046    9.7698 H   0  0  0  0  0  0  0  0  0  0  0  0
   15.4905   92.4784   11.2229 H   0  0  0  0  0  0  0  0  0  0  0  0
   13.4079   91.9531   13.2496 H   0  0  0  0  0  0  0  0  0  0  0  0
   13.8600   89.5666   12.7735 H   0  0  0  0  0  0  0  0  0  0  0  0
   15.2003   90.0444   11.6772 H   0  0  0  0  0  0  0  0  0  0  0  0
   13.5081   90.4939   11.2759 H   0  0  0  0  0  0  0  0  0  0  0  0
   13.8286   91.7362   15.3700 H   0  0  0  0  0  0  0  0  0  0  0  0
   16.4193   92.2959   16.4105 H   0  0  0  0  0  0  0  0  0  0  0  0
   14.2210   92.5924   17.6477 H   0  0  0  0  0  0  0  0  0  0  0  0
   15.5781   91.8803   18.5847 H   0  0  0  0  0  0  0  0  0  0  0  0
   14.5777   89.6118   18.1586 H   0  0  0  0  0  0  0  0  0  0  0  0
   13.1603   90.4379   17.4269 H   0  0  0  0  0  0  0  0  0  0  0  0
   14.1834   90.9926   20.2433 H   0  0  0  0  0  0  0  0  0  0  0  0
   12.9065   89.7878   19.8631 H   0  0  0  0  0  0  0  0  0  0  0  0
   12.1284   92.2461   18.6832 H   0  0  0  0  0  0  0  0  0  0  0  0
   11.5424   91.9607   22.6966 H   0  0  0  0  0  0  0  0  0  0  0  0
   12.7331   90.8936   21.9053 H   0  0  0  0  0  0  0  0  0  0  0  0
   10.6148   93.5951   19.6938 H   0  0  0  0  0  0  0  0  0  0  0  0
   10.3551   93.4806   21.4551 H   0  0  0  0  0  0  0  0  0  0  0  0
   17.7700   90.8399   17.7326 H   0  0  0  0  0  0  0  0  0  0  0  0
   18.0250   88.3585   16.1026 H   0  0  0  0  0  0  0  0  0  0  0  0
   20.2980   88.7413   15.9605 H   0  0  0  0  0  0  0  0  0  0  0  0
   20.3629   89.6133   17.5297 H   0  0  0  0  0  0  0  0  0  0  0  0
   19.0164   91.4720   16.3484 H   0  0  0  0  0  0  0  0  0  0  0  0
   19.4419   90.6352   14.8169 H   0  0  0  0  0  0  0  0  0  0  0  0
   21.5200   91.5376   16.8482 H   0  0  0  0  0  0  0  0  0  0  0  0
   20.9303   92.5879   15.5155 H   0  0  0  0  0  0  0  0  0  0  0  0
   21.6067   90.7010   13.9259 H   0  0  0  0  0  0  0  0  0  0  0  0
   22.4605   89.9674   15.3257 H   0  0  0  0  0  0  0  0  0  0  0  0
   23.9260   91.3441   14.0008 H   0  0  0  0  0  0  0  0  0  0  0  0
   23.7552   91.9958   15.5026 H   0  0  0  0  0  0  0  0  0  0  0  0
   22.9727   92.6680   14.2199 H   0  0  0  0  0  0  0  0  0  0  0  0
   18.8831   86.4880   16.9623 H   0  0  0  0  0  0  0  0  0  0  0  0
   17.8731   85.7151   19.4960 H   0  0  0  0  0  0  0  0  0  0  0  0
   21.1048   85.5981   19.7492 O   0  0  0  0  0  0  0  0  0  0  0  0
   18.9608   83.5902   19.0844 H   0  0  0  0  0  0  0  0  0  0  0  0
   20.0752   84.3366   17.8896 H   0  0  0  0  0  0  0  0  0  0  0  0
   18.2922   83.2531   16.9000 H   0  0  0  0  0  0  0  0  0  0  0  0
  1  2  1  0  0  0  0
  1 80  1  0  0  0  0
  1 81  1  0  0  0  0
  1 82  1  0  0  0  0
  2  3  1  0  0  0  0
  2  5  1  0  0  0  0
  2 83  1  6  0  0  0
  3  4  2  0  0  0  0
  3  6  1  0  0  0  0
  5 84  1  0  0  0  0
  5 85  1  0  0  0  0
  5 86  1  0  0  0  0
  6  7  1  0  0  0  0
  6 87  1  0  0  0  0
  7  8  1  0  0  0  0
  7 10  1  0  0  0  0
  7 88  1  1  0  0  0
  8  9  2  0  0  0  0
  8 17  1  0  0  0  0
 10 11  1  0  0  0  0
 10 89  1  0  0  0  0
 10 90  1  0  0  0  0
 11 12  1  0  0  0  0
 11 91  1  0  0  0  0
 11 92  1  0  0  0  0
 12 13  1  0  0  0  0
 12 93  1  0  0  0  0
 12 94  1  0  0  0  0
 13 14  1  0  0  0  0
 13 95  1  0  0  0  0
 14 15  1  0  0  0  0
 14 16  1  0  0  0  0
 15 96  1  0  0  0  0
 15 97  1  0  0  0  0
 16 98  1  0  0  0  0
 16 99  1  0  0  0  0
 17 18  1  0  0  0  0
 17100  1  0  0  0  0
 18 19  1  0  0  0  0
 18 21  1  0  0  0  0
 18101  1  1  0  0  0
 19 20  2  0  0  0  0
 19 24  1  0  0  0  0
 21 22  1  0  0  0  0
 21 23  1  0  0  0  0
 21102  1  6  0  0  0
 22103  1  0  0  0  0
 23104  1  0  0  0  0
 23105  1  0  0  0  0
 23106  1  0  0  0  0
 24 25  1  0  0  0  0
 24107  1  0  0  0  0
 25 26  1  0  0  0  0
 25 28  1  0  0  0  0
 25108  1  1  0  0  0
 26 27  2  0  0  0  0
 26 33  1  0  0  0  0
 28 29  1  0  0  0  0
 28109  1  0  0  0  0
 28110  1  0  0  0  0
 29 30  1  0  0  0  0
 29111  1  0  0  0  0
 29112  1  0  0  0  0
 30 31  1  0  0  0  0
 30113  1  0  0  0  0
 30114  1  0  0  0  0
 31 32  1  0  0  0  0
 31115  1  0  0  0  0
 31116  1  0  0  0  0
 32117  1  0  0  0  0
 32118  1  0  0  0  0
 32119  1  0  0  0  0
 33 34  1  0  0  0  0
 33120  1  0  0  0  0
 34 35  1  0  0  0  0
 34 37  1  0  0  0  0
 34121  1  1  0  0  0
 35 36  2  0  0  0  0
 35 42  1  0  0  0  0
 37 38  1  0  0  0  0
 37122  1  0  0  0  0
 37123  1  0  0  0  0
 38 39  1  0  0  0  0
 38124  1  0  0  0  0
 38125  1  0  0  0  0
 39 40  2  0  0  0  0
 39 41  1  0  0  0  0
 41126  1  0  0  0  0
 41127  1  0  0  0  0
 42 43  1  0  0  0  0
 42128  1  0  0  0  0
 43 44  1  0  0  0  0
 43 46  1  0  0  0  0
 43129  1  6  0  0  0
 44 45  2  0  0  0  0
 44 49  1  0  0  0  0
 46 47  1  0  0  0  0
 46 48  1  0  0  0  0
 46130  1  1  0  0  0
 47131  1  0  0  0  0
 48132  1  0  0  0  0
 48133  1  0  0  0  0
 48134  1  0  0  0  0
 49 50  1  0  0  0  0
 49135  1  0  0  0  0
 50 51  1  0  0  0  0
 50 53  1  0  0  0  0
 50136  1  1  0  0  0
 51 52  2  0  0  0  0
 51 54  1  0  0  0  0
 53137  1  0  0  0  0
 53138  1  0  0  0  0
 53139  1  0  0  0  0
 54 55  1  0  0  0  0
 54140  1  0  0  0  0
 55 56  1  0  0  0  0
 55 58  1  0  0  0  0
 55141  1  6  0  0  0
 56 57  2  0  0  0  0
 56 65  1  0  0  0  0
 58 59  1  0  0  0  0
 58142  1  0  0  0  0
 58143  1  0  0  0  0
 59 60  1  0  0  0  0
 59144  1  0  0  0  0
 59145  1  0  0  0  0
 60 61  1  0  0  0  0
 60146  1  0  0  0  0
 60147  1  0  0  0  0
 61 62  1  0  0  0  0
 61148  1  0  0  0  0
 62 63  1  0  0  0  0
 62 64  1  0  0  0  0
 63149  1  0  0  0  0
 63150  1  0  0  0  0
 64151  1  0  0  0  0
 64152  1  0  0  0  0
 65 66  1  0  0  0  0
 65153  1  0  0  0  0
 66 67  1  0  0  0  0
 66 69  1  0  0  0  0
 66154  1  6  0  0  0
 67 68  2  0  0  0  0
 67 74  1  0  0  0  0
 69 70  1  0  0  0  0
 69155  1  0  0  0  0
 69156  1  0  0  0  0
 70 71  1  0  0  0  0
 70157  1  0  0  0  0
 70158  1  0  0  0  0
 71 72  1  0  0  0  0
 71159  1  0  0  0  0
 71160  1  0  0  0  0
 72 73  1  0  0  0  0
 72161  1  0  0  0  0
 72162  1  0  0  0  0
 73163  1  0  0  0  0
 73164  1  0  0  0  0
 73165  1  0  0  0  0
 74 75  1  0  0  0  0
 74166  1  0  0  0  0
 75 76  1  0  0  0  0
 75 78  1  0  0  0  0
 75167  1  1  0  0  0
 76 77  1  0  0  0  0
 76168  2  0  0  0  0
 78 79  1  0  0  0  0
 78169  1  0  0  0  0
 78170  1  0  0  0  0
 79171  1  0  0  0  0
M  CHG  4   1   1  32   1  73   1  77  -1
M  END
