4u7v_ligand
 OpenBabel08222323353D

 74 76  0  0  1  0  0  0  0  0999 V2000
    9.4130   15.9410    4.3890 C   0  0  0  0  0  0  0  0  0  0  0  0
    8.8940   15.6080    5.5640 C   0  0  0  0  0  0  0  0  0  0  0  0
   10.1710   13.8340    4.5600 C   0  0  0  0  0  0  0  0  0  0  0  0
    8.0100   16.5270    6.4510 C   0  0  0  0  0  0  0  0  0  0  0  0
    8.8220   16.6610    8.5070 C   0  0  0  0  0  0  0  0  0  0  0  0
    9.7330   16.7940   10.8790 C   0  0  2  0  0  0  0  0  0  0  0  0
    9.3430   17.9940   11.7980 C   0  0  2  0  0  0  0  0  0  0  0  0
    7.9640   18.5020   11.4980 C   0  0  0  0  0  0  0  0  0  0  0  0
    6.8790   17.5940   11.9990 C   0  0  2  0  0  0  0  0  0  0  0  0
   10.1090   14.9420    3.8330 N   0  0  0  0  0  0  0  0  0  0  0  0
    7.3320   16.0990   13.8890 C   0  0  0  0  0  0  0  0  0  0  0  0
    7.4770   16.0240   15.4520 C   0  0  1  0  0  0  0  0  0  0  0  0
    4.1610   16.5720   11.1820 C   0  0  0  0  0  0  0  0  0  0  0  0
    3.1330   15.7170   11.5240 C   0  0  0  0  0  0  0  0  0  0  0  0
    2.4890   15.8370   12.7780 C   0  0  0  0  0  0  0  0  0  0  0  0
    2.8660   16.8200   13.6660 C   0  0  0  0  0  0  0  0  0  0  0  0
    3.8930   17.6380   13.3180 C   0  0  0  0  0  0  0  0  0  0  0  0
    4.5240   17.5120   12.1010 C   0  0  0  0  0  0  0  0  0  0  0  0
    5.5620   18.3580   11.8290 C   0  0  0  0  0  0  0  0  0  0  0  0
    7.0690   17.3420   13.4120 N   0  0  0  0  0  0  0  0  0  0  0  0
    7.5380   15.1090   13.1480 O   0  0  0  0  0  0  0  0  0  0  0  0
    7.0610   14.6760   15.9470 N   0  3  0  0  0  0  0  0  0  0  0  0
    8.9380   16.3920   15.8780 C   0  0  0  0  0  0  0  0  0  0  0  0
    9.9580   15.3710   15.3210 C   0  0  0  0  0  0  0  0  0  0  0  0
    9.0500   16.5310   17.3990 C   0  0  0  0  0  0  0  0  0  0  0  0
   10.2460   19.1150   11.5400 O   0  0  0  0  0  0  0  0  0  0  0  0
   11.2170   16.3990   11.1950 C   0  0  0  0  0  0  0  0  0  0  0  0
   11.5170   15.2210   10.4780 C   0  0  0  0  0  0  0  0  0  0  0  0
   12.0090   15.2530    9.1760 C   0  0  0  0  0  0  0  0  0  0  0  0
   12.2870   14.0430    8.5230 C   0  0  0  0  0  0  0  0  0  0  0  0
   12.0840   12.8080    9.1610 C   0  0  0  0  0  0  0  0  0  0  0  0
   11.5780   12.8090   10.4510 C   0  0  0  0  0  0  0  0  0  0  0  0
   11.3200   13.9910   11.1030 C   0  0  0  0  0  0  0  0  0  0  0  0
    9.5480   17.2590    9.4790 N   0  0  0  0  0  0  0  0  0  0  0  0
    8.1490   15.6400    8.6850 O   0  0  0  0  0  0  0  0  0  0  0  0
    8.8270   17.2800    7.2860 O   0  0  0  0  0  0  0  0  0  0  0  0
    9.2740   14.1170    5.9360 S   0  0  0  0  0  0  0  0  0  0  0  0
    9.2866   16.9194    3.9278 H   0  0  0  0  0  0  0  0  0  0  0  0
   10.7038   12.9185    4.3072 H   0  0  0  0  0  0  0  0  0  0  0  0
    7.3319   15.9099    7.0588 H   0  0  0  0  0  0  0  0  0  0  0  0
    7.4196   17.1988    5.8107 H   0  0  0  0  0  0  0  0  0  0  0  0
    9.0784   15.9312   11.0713 H   0  0  0  0  0  0  0  0  0  0  0  0
    9.4078   17.6816   12.8507 H   0  0  0  0  0  0  0  0  0  0  0  0
    7.8585   18.6049   10.4079 H   0  0  0  0  0  0  0  0  0  0  0  0
    7.8429   19.4869   11.9727 H   0  0  0  0  0  0  0  0  0  0  0  0
    6.8671   16.6492   11.4359 H   0  0  0  0  0  0  0  0  0  0  0  0
    6.7999   16.7685   15.8962 H   0  0  0  0  0  0  0  0  0  0  0  0
    4.6595   16.4994   10.2222 H   0  0  0  0  0  0  0  0  0  0  0  0
    2.8171   14.9488   10.8275 H   0  0  0  0  0  0  0  0  0  0  0  0
    1.6929   15.1502   13.0419 H   0  0  0  0  0  0  0  0  0  0  0  0
    2.3574   16.9376   14.6160 H   0  0  0  0  0  0  0  0  0  0  0  0
    4.2217   18.4039   14.0111 H   0  0  0  0  0  0  0  0  0  0  0  0
    5.4784   18.7254   10.7955 H   0  0  0  0  0  0  0  0  0  0  0  0
    5.5364   19.2100   12.5243 H   0  0  0  0  0  0  0  0  0  0  0  0
    7.0046   18.1055   14.0546 H   0  0  0  0  0  0  0  0  0  0  0  0
    6.1173   14.4851   15.6487 H   0  0  0  0  0  0  0  0  0  0  0  0
    7.1049   14.6595   16.9539 H   0  0  0  0  0  0  0  0  0  0  0  0
    7.6803   13.9746   15.5722 H   0  0  0  0  0  0  0  0  0  0  0  0
    9.1764   17.3714   15.4376 H   0  0  0  0  0  0  0  0  0  0  0  0
   10.9723   15.6565   15.6368 H   0  0  0  0  0  0  0  0  0  0  0  0
    9.9050   15.3619   14.2223 H   0  0  0  0  0  0  0  0  0  0  0  0
    9.7221   14.3687   15.7078 H   0  0  0  0  0  0  0  0  0  0  0  0
    8.3108   17.2634   17.7556 H   0  0  0  0  0  0  0  0  0  0  0  0
   10.0617   16.8731   17.6625 H   0  0  0  0  0  0  0  0  0  0  0  0
    8.8578   15.5564   17.8714 H   0  0  0  0  0  0  0  0  0  0  0  0
   11.1402   18.8467   11.7154 H   0  0  0  0  0  0  0  0  0  0  0  0
   11.3338   16.2192   12.2739 H   0  0  0  0  0  0  0  0  0  0  0  0
   11.8933   17.2084   10.8828 H   0  0  0  0  0  0  0  0  0  0  0  0
   12.1749   16.1994    8.6741 H   0  0  0  0  0  0  0  0  0  0  0  0
   12.6654   14.0613    7.5074 H   0  0  0  0  0  0  0  0  0  0  0  0
   12.3174   11.8773    8.6567 H   0  0  0  0  0  0  0  0  0  0  0  0
   11.3835   11.8672   10.9513 H   0  0  0  0  0  0  0  0  0  0  0  0
   10.9560   13.9661   12.1238 H   0  0  0  0  0  0  0  0  0  0  0  0
   10.0120   18.1085    9.2280 H   0  0  0  0  0  0  0  0  0  0  0  0
  1 10  1  0  0  0  0
  1 38  1  0  0  0  0
  2  1  2  0  0  0  0
  2 37  1  0  0  0  0
  3 10  2  0  0  0  0
  3 39  1  0  0  0  0
  4  2  1  0  0  0  0
  4 40  1  0  0  0  0
  4 41  1  0  0  0  0
  5 35  2  0  0  0  0
  5 36  1  0  0  0  0
  6 27  1  0  0  0  0
  6 34  1  0  0  0  0
  6 42  1  1  0  0  0
  7  6  1  0  0  0  0
  7 26  1  0  0  0  0
  7 43  1  1  0  0  0
  8  7  1  0  0  0  0
  8 44  1  0  0  0  0
  8 45  1  0  0  0  0
  9  8  1  0  0  0  0
  9 20  1  0  0  0  0
  9 46  1  6  0  0  0
 11 12  1  0  0  0  0
 11 21  2  0  0  0  0
 12 22  1  0  0  0  0
 12 23  1  0  0  0  0
 12 47  1  1  0  0  0
 13 14  2  0  0  0  0
 13 48  1  0  0  0  0
 14 15  1  0  0  0  0
 14 49  1  0  0  0  0
 15 50  1  0  0  0  0
 16 15  2  0  0  0  0
 16 51  1  0  0  0  0
 17 16  1  0  0  0  0
 17 52  1  0  0  0  0
 18 13  1  0  0  0  0
 18 17  2  0  0  0  0
 18 19  1  0  0  0  0
 19  9  1  0  0  0  0
 19 53  1  0  0  0  0
 19 54  1  0  0  0  0
 20 11  1  0  0  0  0
 20 55  1  0  0  0  0
 22 56  1  0  0  0  0
 22 57  1  0  0  0  0
 22 58  1  0  0  0  0
 23 24  1  0  0  0  0
 23 25  1  0  0  0  0
 23 59  1  0  0  0  0
 24 60  1  0  0  0  0
 24 61  1  0  0  0  0
 24 62  1  0  0  0  0
 25 63  1  0  0  0  0
 25 64  1  0  0  0  0
 25 65  1  0  0  0  0
 26 66  1  0  0  0  0
 27 28  1  0  0  0  0
 27 67  1  0  0  0  0
 27 68  1  0  0  0  0
 28 29  2  0  0  0  0
 28 33  1  0  0  0  0
 29 30  1  0  0  0  0
 29 69  1  0  0  0  0
 30 31  2  0  0  0  0
 30 70  1  0  0  0  0
 31 32  1  0  0  0  0
 31 71  1  0  0  0  0
 32 33  2  0  0  0  0
 32 72  1  0  0  0  0
 33 73  1  0  0  0  0
 34  5  1  0  0  0  0
 34 74  1  0  0  0  0
 36  4  1  0  0  0  0
 37  3  1  0  0  0  0
M  CHG  1  22   1
M  END
