4u90_ligand
 OpenBabel08222323353D

153155  0  0  1  0  0  0  0  0999 V2000
   15.8520  112.8490  112.1740 N   0  3  0  0  0  0  0  0  0  0  0  0
   15.3420  113.8870  111.2830 C   0  0  2  0  0  0  0  0  0  0  0  0
   15.9670  113.7110  109.9130 C   0  0  0  0  0  0  0  0  0  0  0  0
   17.1140  113.3510  109.7950 O   0  0  0  0  0  0  0  0  0  0  0  0
   15.7020  115.2840  111.7980 C   0  0  0  0  0  0  0  0  0  0  0  0
   15.2350  116.3910  110.8840 C   0  0  0  0  0  0  0  0  0  0  0  0
   13.9450  116.8920  110.9940 C   0  0  0  0  0  0  0  0  0  0  0  0
   16.0700  116.8870  109.8640 C   0  0  0  0  0  0  0  0  0  0  0  0
   13.4890  117.8860  110.1250 C   0  0  0  0  0  0  0  0  0  0  0  0
   15.6250  117.8800  109.0010 C   0  0  0  0  0  0  0  0  0  0  0  0
   14.3330  118.3780  109.1330 C   0  0  0  0  0  0  0  0  0  0  0  0
   15.1720  113.8860  108.8810 N   0  0  0  0  0  0  0  0  0  0  0  0
   15.7050  114.0990  107.5510 C   0  0  2  0  0  0  0  0  0  0  0  0
   14.7340  114.9620  106.7420 C   0  0  0  0  0  0  0  0  0  0  0  0
   13.5150  114.8120  106.8730 O   0  0  0  0  0  0  0  0  0  0  0  0
   15.9350  112.7600  106.8570 C   0  0  0  0  0  0  0  0  0  0  0  0
   17.0690  112.8030  105.8270 C   0  0  0  0  0  0  0  0  0  0  0  0
   17.9560  111.9230  105.8200 O   0  0  0  0  0  0  0  0  0  0  0  0
   17.0360  113.7940  104.9410 N   0  0  0  0  0  0  0  0  0  0  0  0
   15.2880  115.8000  105.8860 N   0  0  0  0  0  0  0  0  0  0  0  0
   14.5090  116.6760  105.0570 C   0  0  2  0  0  0  0  0  0  0  0  0
   14.0080  115.9750  103.7820 C   0  0  0  0  0  0  0  0  0  0  0  0
   13.0800  116.4370  103.1320 O   0  0  0  0  0  0  0  0  0  0  0  0
   15.3080  117.9210  104.6990 C   0  0  2  0  0  0  0  0  0  0  0  0
   14.3720  118.9620  104.0670 C   0  0  0  0  0  0  0  0  0  0  0  0
   16.4340  117.5820  103.7490 C   0  0  0  0  0  0  0  0  0  0  0  0
   13.2940  119.4570  105.0040 C   0  0  0  0  0  0  0  0  0  0  0  0
   14.6400  114.8700  103.4290 N   0  0  0  0  0  0  0  0  0  0  0  0
   14.1900  114.0390  102.3270 C   0  0  2  0  0  0  0  0  0  0  0  0
   13.2590  112.9430  102.8500 C   0  0  0  0  0  0  0  0  0  0  0  0
   13.5920  112.2730  103.7790 O   0  0  0  0  0  0  0  0  0  0  0  0
   15.3800  113.4240  101.6000 C   0  0  0  0  0  0  0  0  0  0  0  0
   14.9230  112.3550  100.6390 C   0  0  0  0  0  0  0  0  0  0  0  0
   16.1700  114.5000  100.8840 C   0  0  0  0  0  0  0  0  0  0  0  0
   12.0860  112.7820  102.2380 N   0  0  0  0  0  0  0  0  0  0  0  0
   11.1230  111.7600  102.6120 C   0  0  0  0  0  0  0  0  0  0  0  0
   11.6470  110.3210  102.5850 C   0  0  0  0  0  0  0  0  0  0  0  0
   12.4940  109.9800  101.7490 O   0  0  0  0  0  0  0  0  0  0  0  0
   11.1220  109.5130  103.5040 N   0  0  0  0  0  0  0  0  0  0  0  0
   11.4900  108.1150  103.6390 C   0  0  2  0  0  0  0  0  0  0  0  0
   10.3330  107.1370  103.3260 C   0  0  0  0  0  0  0  0  0  0  0  0
    9.1350  107.4950  103.2890 O   0  0  0  0  0  0  0  0  0  0  0  0
   11.8900  107.8130  105.0810 C   0  0  2  0  0  0  0  0  0  0  0  0
   10.7880  108.2010  105.9220 O   0  0  0  0  0  0  0  0  0  0  0  0
   13.1520  108.5730  105.4860 C   0  0  0  0  0  0  0  0  0  0  0  0
   10.6750  105.8630  103.1910 N   0  0  0  0  0  0  0  0  0  0  0  0
    9.6420  104.8390  103.2310 C   0  0  2  0  0  0  0  0  0  0  0  0
    9.5660  104.3460  104.6560 C   0  0  0  0  0  0  0  0  0  0  0  0
   10.4600  104.5660  105.4560 O   0  0  0  0  0  0  0  0  0  0  0  0
    9.9150  103.6590  102.2770 C   0  0  2  0  0  0  0  0  0  0  0  0
   11.2290  103.1830  102.4920 O   0  0  0  0  0  0  0  0  0  0  0  0
    9.7940  104.1100  100.8440 C   0  0  0  0  0  0  0  0  0  0  0  0
    8.4420  103.7610  105.0150 N   0  0  0  0  0  0  0  0  0  0  0  0
    8.2570  103.2900  106.3850 C   0  0  2  0  0  0  0  0  0  0  0  0
    8.7360  101.8370  106.5060 C   0  0  0  0  0  0  0  0  0  0  0  0
    8.3990  101.0670  105.6330 O   0  0  0  0  0  0  0  0  0  0  0  0
    6.7900  103.3790  106.6720 C   0  0  0  0  0  0  0  0  0  0  0  0
    6.3260  103.1730  108.1160 C   0  0  0  0  0  0  0  0  0  0  0  0
    6.8740  103.8870  109.1480 C   0  0  0  0  0  0  0  0  0  0  0  0
    5.3000  102.2600  108.4060 C   0  0  0  0  0  0  0  0  0  0  0  0
    6.4320  103.7120  110.4220 C   0  0  0  0  0  0  0  0  0  0  0  0
    4.8600  102.0640  109.6880 C   0  0  0  0  0  0  0  0  0  0  0  0
    5.4160  102.8280  110.6810 C   0  0  0  0  0  0  0  0  0  0  0  0
    4.9950  102.6500  111.9730 O   0  0  0  0  0  0  0  0  0  0  0  0
    9.5370  101.4980  107.5500 N   0  0  0  0  0  0  0  0  0  0  0  0
   10.0480  100.1300  107.8110 C   0  0  2  0  0  0  0  0  0  0  0  0
    9.0280   99.1850  108.4500 C   0  0  0  0  0  0  0  0  0  0  0  0
    9.3010   98.0230  108.5210 O   0  0  0  0  0  0  0  0  0  0  0  0
   11.1860  100.3460  108.8270 C   0  0  0  0  0  0  0  0  0  0  0  0
   11.4300  101.8060  108.8620 C   0  0  0  0  0  0  0  0  0  0  0  0
   10.1220  102.4540  108.4980 C   0  0  0  0  0  0  0  0  0  0  0  0
    7.8790   99.6810  108.9090 N   0  0  0  0  0  0  0  0  0  0  0  0
    7.0270   98.8920  109.7710 C   0  0  2  0  0  0  0  0  0  0  0  0
    5.6120   98.7170  109.2390 C   0  0  0  0  0  0  0  0  0  0  0  0
    4.7930   98.2530  110.0310 O   0  5  0  0  0  0  0  0  0  0  0  0
    6.9880   99.4750  111.1910 C   0  0  0  0  0  0  0  0  0  0  0  0
    8.6140   99.5450  111.9960 S   0  0  0  0  0  0  0  0  0  0  0  0
    5.2880   98.9720  108.0540 O   0  0  0  0  0  0  0  0  0  0  0  0
   15.4410  112.9590  113.0878 H   0  0  0  0  0  0  0  0  0  0  0  0
   16.8543  112.9294  112.2445 H   0  0  0  0  0  0  0  0  0  0  0  0
   15.6127  111.9420  111.8049 H   0  0  0  0  0  0  0  0  0  0  0  0
   14.2483  113.7959  111.2088 H   0  0  0  0  0  0  0  0  0  0  0  0
   16.7956  115.3496  111.8967 H   0  0  0  0  0  0  0  0  0  0  0  0
   15.2357  115.4244  112.7843 H   0  0  0  0  0  0  0  0  0  0  0  0
   13.2844  116.5076  111.7627 H   0  0  0  0  0  0  0  0  0  0  0  0
   17.0719  116.4890  109.7512 H   0  0  0  0  0  0  0  0  0  0  0  0
   12.4812  118.2731  110.2227 H   0  0  0  0  0  0  0  0  0  0  0  0
   16.2811  118.2649  108.2287 H   0  0  0  0  0  0  0  0  0  0  0  0
   13.9817  119.1524  108.4607 H   0  0  0  0  0  0  0  0  0  0  0  0
   14.1813  113.8718  109.0165 H   0  0  0  0  0  0  0  0  0  0  0  0
   16.6673  114.6258  107.6317 H   0  0  0  0  0  0  0  0  0  0  0  0
   15.0070  112.4678  106.3437 H   0  0  0  0  0  0  0  0  0  0  0  0
   16.1841  112.0083  107.6205 H   0  0  0  0  0  0  0  0  0  0  0  0
   17.7521  113.8683  104.2470 H   0  0  0  0  0  0  0  0  0  0  0  0
   16.2950  114.4650  104.9687 H   0  0  0  0  0  0  0  0  0  0  0  0
   16.2849  115.8257  105.8122 H   0  0  0  0  0  0  0  0  0  0  0  0
   13.6279  116.9901  105.6358 H   0  0  0  0  0  0  0  0  0  0  0  0
   15.7397  118.3419  105.6190 H   0  0  0  0  0  0  0  0  0  0  0  0
   13.8881  118.5072  103.1901 H   0  0  0  0  0  0  0  0  0  0  0  0
   14.9763  119.8235  103.7467 H   0  0  0  0  0  0  0  0  0  0  0  0
   17.0949  116.8364  104.2150 H   0  0  0  0  0  0  0  0  0  0  0  0
   17.0095  118.4918  103.5230 H   0  0  0  0  0  0  0  0  0  0  0  0
   16.0169  117.1711  102.8178 H   0  0  0  0  0  0  0  0  0  0  0  0
   12.6667  120.1957  104.4836 H   0  0  0  0  0  0  0  0  0  0  0  0
   13.7595  119.9260  105.8834 H   0  0  0  0  0  0  0  0  0  0  0  0
   12.6713  118.6096  105.3268 H   0  0  0  0  0  0  0  0  0  0  0  0
   15.4561  114.5967  103.9382 H   0  0  0  0  0  0  0  0  0  0  0  0
   13.6320  114.6669  101.6168 H   0  0  0  0  0  0  0  0  0  0  0  0
   16.0368  112.9547  102.3473 H   0  0  0  0  0  0  0  0  0  0  0  0
   15.7962  111.9254  100.1262 H   0  0  0  0  0  0  0  0  0  0  0  0
   14.2421  112.7963   99.8963 H   0  0  0  0  0  0  0  0  0  0  0  0
   14.3976  111.5636  101.1936 H   0  0  0  0  0  0  0  0  0  0  0  0
   16.4891  115.2638  101.6084 H   0  0  0  0  0  0  0  0  0  0  0  0
   15.5390  114.9666  100.1132 H   0  0  0  0  0  0  0  0  0  0  0  0
   17.0556  114.0510  100.4105 H   0  0  0  0  0  0  0  0  0  0  0  0
   11.8568  113.3960  101.4827 H   0  0  0  0  0  0  0  0  0  0  0  0
   10.2728  111.8244  101.9170 H   0  0  0  0  0  0  0  0  0  0  0  0
   10.7784  111.9763  103.6340 H   0  0  0  0  0  0  0  0  0  0  0  0
   10.4404  109.8877  104.1325 H   0  0  0  0  0  0  0  0  0  0  0  0
   12.3332  107.9110  102.9627 H   0  0  0  0  0  0  0  0  0  0  0  0
   12.0759  106.7342  105.1892 H   0  0  0  0  0  0  0  0  0  0  0  0
   10.6173  109.1288  105.8104 H   0  0  0  0  0  0  0  0  0  0  0  0
   13.4077  108.3303  106.5280 H   0  0  0  0  0  0  0  0  0  0  0  0
   12.9739  109.6546  105.3946 H   0  0  0  0  0  0  0  0  0  0  0  0
   13.9831  108.2813  104.8271 H   0  0  0  0  0  0  0  0  0  0  0  0
   11.6335  105.6084  103.0629 H   0  0  0  0  0  0  0  0  0  0  0  0
    8.6810  105.2936  102.9487 H   0  0  0  0  0  0  0  0  0  0  0  0
    9.1909  102.8543  102.4724 H   0  0  0  0  0  0  0  0  0  0  0  0
   11.8496  103.8819  102.3218 H   0  0  0  0  0  0  0  0  0  0  0  0
    9.9908  103.2599  100.1742 H   0  0  0  0  0  0  0  0  0  0  0  0
   10.5250  104.9082  100.6478 H   0  0  0  0  0  0  0  0  0  0  0  0
    8.7779  104.4909  100.6640 H   0  0  0  0  0  0  0  0  0  0  0  0
    7.7100  103.6384  104.3448 H   0  0  0  0  0  0  0  0  0  0  0  0
    8.8206  103.9232  107.0859 H   0  0  0  0  0  0  0  0  0  0  0  0
    6.2895  102.6175  106.0560 H   0  0  0  0  0  0  0  0  0  0  0  0
    6.4560  104.3798  106.3609 H   0  0  0  0  0  0  0  0  0  0  0  0
    7.6673  104.5981  108.9476 H   0  0  0  0  0  0  0  0  0  0  0  0
    4.8462  101.6980  107.5978 H   0  0  0  0  0  0  0  0  0  0  0  0
    6.8830  104.2716  111.2335 H   0  0  0  0  0  0  0  0  0  0  0  0
    4.0961  101.3278  109.9105 H   0  0  0  0  0  0  0  0  0  0  0  0
    5.4670  103.2452  112.5435 H   0  0  0  0  0  0  0  0  0  0  0  0
   10.4222   99.6836  106.8779 H   0  0  0  0  0  0  0  0  0  0  0  0
   12.0932   99.8146  108.5036 H   0  0  0  0  0  0  0  0  0  0  0  0
   10.8843   99.9850  109.8213 H   0  0  0  0  0  0  0  0  0  0  0  0
   12.2081  102.0810  108.1348 H   0  0  0  0  0  0  0  0  0  0  0  0
   11.7433  102.1171  109.8695 H   0  0  0  0  0  0  0  0  0  0  0  0
    9.4809  102.5765  109.3834 H   0  0  0  0  0  0  0  0  0  0  0  0
   10.2836  103.4333  108.0239 H   0  0  0  0  0  0  0  0  0  0  0  0
    7.6034  100.6080  108.6547 H   0  0  0  0  0  0  0  0  0  0  0  0
    7.4754   97.8896  109.8343 H   0  0  0  0  0  0  0  0  0  0  0  0
    6.3232   98.8498  111.8050 H   0  0  0  0  0  0  0  0  0  0  0  0
    6.5834  100.4964  111.1361 H   0  0  0  0  0  0  0  0  0  0  0  0
    8.5138   99.9360  112.9196 H   0  0  0  0  0  0  0  0  0  0  0  0
  1  2  1  0  0  0  0
  1 79  1  0  0  0  0
  1 80  1  0  0  0  0
  1 81  1  0  0  0  0
  2  3  1  0  0  0  0
  2  5  1  0  0  0  0
  2 82  1  6  0  0  0
  3  4  2  0  0  0  0
  3 12  1  0  0  0  0
  5  6  1  0  0  0  0
  5 83  1  0  0  0  0
  5 84  1  0  0  0  0
  6  7  2  0  0  0  0
  6  8  1  0  0  0  0
  7  9  1  0  0  0  0
  7 85  1  0  0  0  0
  8 10  2  0  0  0  0
  8 86  1  0  0  0  0
  9 11  2  0  0  0  0
  9 87  1  0  0  0  0
 10 11  1  0  0  0  0
 10 88  1  0  0  0  0
 11 89  1  0  0  0  0
 12 13  1  0  0  0  0
 12 90  1  0  0  0  0
 13 14  1  0  0  0  0
 13 16  1  0  0  0  0
 13 91  1  1  0  0  0
 14 15  2  0  0  0  0
 14 20  1  0  0  0  0
 16 17  1  0  0  0  0
 16 92  1  0  0  0  0
 16 93  1  0  0  0  0
 17 18  2  0  0  0  0
 17 19  1  0  0  0  0
 19 94  1  0  0  0  0
 19 95  1  0  0  0  0
 20 21  1  0  0  0  0
 20 96  1  0  0  0  0
 21 22  1  0  0  0  0
 21 24  1  0  0  0  0
 21 97  1  1  0  0  0
 22 23  2  0  0  0  0
 22 28  1  0  0  0  0
 24 25  1  0  0  0  0
 24 26  1  0  0  0  0
 24 98  1  1  0  0  0
 25 27  1  0  0  0  0
 25 99  1  0  0  0  0
 25100  1  0  0  0  0
 26101  1  0  0  0  0
 26102  1  0  0  0  0
 26103  1  0  0  0  0
 27104  1  0  0  0  0
 27105  1  0  0  0  0
 27106  1  0  0  0  0
 28 29  1  0  0  0  0
 28107  1  0  0  0  0
 29 30  1  0  0  0  0
 29 32  1  0  0  0  0
 29108  1  6  0  0  0
 30 31  2  0  0  0  0
 30 35  1  0  0  0  0
 32 33  1  0  0  0  0
 32 34  1  0  0  0  0
 32109  1  0  0  0  0
 33110  1  0  0  0  0
 33111  1  0  0  0  0
 33112  1  0  0  0  0
 34113  1  0  0  0  0
 34114  1  0  0  0  0
 34115  1  0  0  0  0
 35 36  1  0  0  0  0
 35116  1  0  0  0  0
 36 37  1  0  0  0  0
 36117  1  0  0  0  0
 36118  1  0  0  0  0
 37 38  2  0  0  0  0
 37 39  1  0  0  0  0
 39 40  1  0  0  0  0
 39119  1  0  0  0  0
 40 41  1  0  0  0  0
 40 43  1  0  0  0  0
 40120  1  6  0  0  0
 41 42  2  0  0  0  0
 41 46  1  0  0  0  0
 43 44  1  0  0  0  0
 43 45  1  0  0  0  0
 43121  1  1  0  0  0
 44122  1  0  0  0  0
 45123  1  0  0  0  0
 45124  1  0  0  0  0
 45125  1  0  0  0  0
 46 47  1  0  0  0  0
 46126  1  0  0  0  0
 47 48  1  0  0  0  0
 47 50  1  0  0  0  0
 47127  1  6  0  0  0
 48 49  2  0  0  0  0
 48 53  1  0  0  0  0
 50 51  1  0  0  0  0
 50 52  1  0  0  0  0
 50128  1  1  0  0  0
 51129  1  0  0  0  0
 52130  1  0  0  0  0
 52131  1  0  0  0  0
 52132  1  0  0  0  0
 53 54  1  0  0  0  0
 53133  1  0  0  0  0
 54 55  1  0  0  0  0
 54 57  1  0  0  0  0
 54134  1  1  0  0  0
 55 56  2  0  0  0  0
 55 65  1  0  0  0  0
 57 58  1  0  0  0  0
 57135  1  0  0  0  0
 57136  1  0  0  0  0
 58 59  2  0  0  0  0
 58 60  1  0  0  0  0
 59 61  1  0  0  0  0
 59137  1  0  0  0  0
 60 62  2  0  0  0  0
 60138  1  0  0  0  0
 61 63  2  0  0  0  0
 61139  1  0  0  0  0
 62 63  1  0  0  0  0
 62140  1  0  0  0  0
 63 64  1  0  0  0  0
 64141  1  0  0  0  0
 65 66  1  0  0  0  0
 65 71  1  0  0  0  0
 66 67  1  0  0  0  0
 66 69  1  0  0  0  0
 66142  1  6  0  0  0
 67 68  2  0  0  0  0
 67 72  1  0  0  0  0
 69 70  1  0  0  0  0
 69143  1  0  0  0  0
 69144  1  0  0  0  0
 70 71  1  0  0  0  0
 70145  1  0  0  0  0
 70146  1  0  0  0  0
 71147  1  0  0  0  0
 71148  1  0  0  0  0
 72 73  1  0  0  0  0
 72149  1  0  0  0  0
 73 74  1  0  0  0  0
 73 76  1  0  0  0  0
 73150  1  1  0  0  0
 74 75  1  0  0  0  0
 74 78  2  0  0  0  0
 76 77  1  0  0  0  0
 76151  1  0  0  0  0
 76152  1  0  0  0  0
 77153  1  0  0  0  0
M  CHG  2   1   1  75  -1
M  END
