4u91_ligand
 OpenBabel08222323353D

167168  0  0  1  0  0  0  0  0999 V2000
   25.8050   35.8890  221.7500 N   0  3  0  0  0  0  0  0  0  0  0  0
   26.7920   35.0160  221.1250 C   0  0  2  0  0  0  0  0  0  0  0  0
   26.5140   34.8620  219.6410 C   0  0  0  0  0  0  0  0  0  0  0  0
   25.3790   34.6390  219.2410 O   0  0  0  0  0  0  0  0  0  0  0  0
   26.7890   33.6360  221.7880 C   0  0  0  0  0  0  0  0  0  0  0  0
   27.6170   32.6160  221.0640 C   0  0  0  0  0  0  0  0  0  0  0  0
   28.9490   32.4400  221.3740 C   0  0  0  0  0  0  0  0  0  0  0  0
   27.0630   31.8380  220.0690 C   0  0  0  0  0  0  0  0  0  0  0  0
   29.7130   31.5090  220.7090 C   0  0  0  0  0  0  0  0  0  0  0  0
   27.8220   30.9050  219.3980 C   0  0  0  0  0  0  0  0  0  0  0  0
   29.1500   30.7410  219.7200 C   0  0  0  0  0  0  0  0  0  0  0  0
   27.5500   35.0000  218.8270 N   0  0  0  0  0  0  0  0  0  0  0  0
   27.4280   34.7150  217.4060 C   0  0  2  0  0  0  0  0  0  0  0  0
   28.5540   33.8310  216.8940 C   0  0  0  0  0  0  0  0  0  0  0  0
   29.7180   34.0430  217.2110 O   0  0  0  0  0  0  0  0  0  0  0  0
   27.3540   36.0000  216.5870 C   0  0  0  0  0  0  0  0  0  0  0  0
   27.2080   35.7070  215.2140 O   0  0  0  0  0  0  0  0  0  0  0  0
   28.1920   32.8460  216.0880 N   0  0  0  0  0  0  0  0  0  0  0  0
   29.1680   32.0160  215.4090 C   0  0  2  0  0  0  0  0  0  0  0  0
   29.8270   32.7740  214.2590 C   0  0  0  0  0  0  0  0  0  0  0  0
   30.8190   32.3260  213.7010 O   0  0  0  0  0  0  0  0  0  0  0  0
   28.5620   30.6940  214.9170 C   0  0  2  0  0  0  0  0  0  0  0  0
   29.6660   29.6670  214.6880 C   0  0  0  0  0  0  0  0  0  0  0  0
   27.7500   30.9090  213.6560 C   0  0  0  0  0  0  0  0  0  0  0  0
   30.6920   29.6310  215.7940 C   0  0  0  0  0  0  0  0  0  0  0  0
   29.2450   33.9120  213.8940 N   0  0  0  0  0  0  0  0  0  0  0  0
   29.7830   34.7490  212.8290 C   0  0  2  0  0  0  0  0  0  0  0  0
   30.6620   35.8550  213.3990 C   0  0  0  0  0  0  0  0  0  0  0  0
   30.2710   36.5540  214.3220 O   0  0  0  0  0  0  0  0  0  0  0  0
   28.6640   35.3910  211.9900 C   0  0  0  0  0  0  0  0  0  0  0  0
   29.2510   36.3410  210.9640 C   0  0  0  0  0  0  0  0  0  0  0  0
   27.8250   34.3220  211.3140 C   0  0  0  0  0  0  0  0  0  0  0  0
   31.8520   36.0120  212.8390 N   0  0  0  0  0  0  0  0  0  0  0  0
   32.8000   36.9730  213.3620 C   0  0  0  0  0  0  0  0  0  0  0  0
   32.2930   38.3990  213.2940 C   0  0  0  0  0  0  0  0  0  0  0  0
   31.6840   38.8090  212.3210 O   0  0  0  0  0  0  0  0  0  0  0  0
   32.5320   39.1460  214.3600 N   0  0  0  0  0  0  0  0  0  0  0  0
   32.1100   40.5340  214.4470 C   0  0  2  0  0  0  0  0  0  0  0  0
   33.0370   41.4860  213.7050 C   0  0  0  0  0  0  0  0  0  0  0  0
   34.2160   41.2070  213.5210 O   0  0  0  0  0  0  0  0  0  0  0  0
   31.9860   40.9600  215.9080 C   0  0  0  0  0  0  0  0  0  0  0  0
   33.2630   41.0920  216.4940 O   0  0  0  0  0  0  0  0  0  0  0  0
   32.4850   42.6130  213.2780 N   0  0  0  0  0  0  0  0  0  0  0  0
   33.2780   43.7140  212.7580 C   0  0  2  0  0  0  0  0  0  0  0  0
   34.0010   44.4060  213.9050 C   0  0  0  0  0  0  0  0  0  0  0  0
   33.5270   44.3660  215.0420 O   0  0  0  0  0  0  0  0  0  0  0  0
   32.3880   44.7080  212.0200 C   0  0  0  0  0  0  0  0  0  0  0  0
   31.9160   44.2490  210.6450 C   0  0  0  0  0  0  0  0  0  0  0  0
   30.5370   44.7990  210.3270 C   0  0  0  0  0  0  0  0  0  0  0  0
   32.9220   44.6470  209.5800 C   0  0  0  0  0  0  0  0  0  0  0  0
   35.2000   45.0620  213.5730 N   0  0  0  0  0  0  0  0  0  0  0  0
   35.8050   45.7710  214.7190 C   0  0  2  0  0  0  0  0  0  0  0  0
   34.8380   46.8170  215.2710 C   0  0  0  0  0  0  0  0  0  0  0  0
   34.1750   47.5200  214.5130 O   0  0  0  0  0  0  0  0  0  0  0  0
   37.0400   46.4410  214.1190 C   0  0  0  0  0  0  0  0  0  0  0  0
   37.4780   45.5030  213.0670 C   0  0  0  0  0  0  0  0  0  0  0  0
   36.1820   45.2160  212.3910 C   0  0  0  0  0  0  0  0  0  0  0  0
   34.7700   46.9080  216.5970 N   0  0  0  0  0  0  0  0  0  0  0  0
   33.6290   47.4910  217.2920 C   0  0  2  0  0  0  0  0  0  0  0  0
   33.3400   48.9610  216.9830 C   0  0  0  0  0  0  0  0  0  0  0  0
   32.1820   49.3430  216.8260 O   0  0  0  0  0  0  0  0  0  0  0  0
   33.7540   47.2590  218.8070 C   0  0  0  0  0  0  0  0  0  0  0  0
   34.3110   48.4240  219.6120 C   0  0  0  0  0  0  0  0  0  0  0  0
   33.6310   48.5160  220.9670 C   0  0  0  0  0  0  0  0  0  0  0  0
   34.5720   48.8130  222.0410 N   0  0  0  0  0  0  0  0  0  0  0  0
   35.7680   48.2480  222.1670 C   0  0  0  0  0  3  0  0  0  0  0  0
   36.5530   48.5830  223.1810 N   0  0  0  0  0  0  0  0  0  0  0  0
   36.1800   47.3500  221.2840 N   0  0  0  0  0  0  0  0  0  0  0  0
   34.3780   49.7820  216.8940 N   0  0  0  0  0  0  0  0  0  0  0  0
   34.1730   51.1800  216.5440 C   0  0  2  0  0  0  0  0  0  0  0  0
   35.2140   51.6700  215.5500 C   0  0  0  0  0  0  0  0  0  0  0  0
   36.4080   51.7080  215.8390 O   0  0  0  0  0  0  0  0  0  0  0  0
   34.1200   52.0700  217.7860 C   0  0  0  0  0  0  0  0  0  0  0  0
   32.7070   52.5160  218.1160 C   0  0  0  0  0  0  0  0  0  0  0  0
   31.7790   52.1530  217.3640 O   0  5  0  0  0  0  0  0  0  0  0  0
   32.5190   53.2250  219.1250 O   0  0  0  0  0  0  0  0  0  0  0  0
   34.7310   52.0340  214.3700 N   0  0  0  0  0  0  0  0  0  0  0  0
   35.5760   52.4460  213.2680 C   0  0  2  0  0  0  0  0  0  0  0  0
   34.7160   52.7760  212.0550 C   0  0  0  0  0  0  0  0  0  0  0  0
   33.6780   53.4270  212.1790 O   0  5  0  0  0  0  0  0  0  0  0  0
   36.5380   51.3120  212.9270 C   0  0  0  0  0  0  0  0  0  0  0  0
   38.2780   51.7650  213.0260 S   0  0  0  0  0  0  0  0  0  0  0  0
   35.0380   52.4080  210.9240 O   0  0  0  0  0  0  0  0  0  0  0  0
   26.0088   35.9767  222.7333 H   0  0  0  0  0  0  0  0  0  0  0  0
   24.8848   35.4949  221.6314 H   0  0  0  0  0  0  0  0  0  0  0  0
   25.8392   36.7988  221.3174 H   0  0  0  0  0  0  0  0  0  0  0  0
   27.7869   35.4675  221.2527 H   0  0  0  0  0  0  0  0  0  0  0  0
   25.7513   33.2737  221.8306 H   0  0  0  0  0  0  0  0  0  0  0  0
   27.1830   33.7409  222.8096 H   0  0  0  0  0  0  0  0  0  0  0  0
   29.4006   33.0438  222.1528 H   0  0  0  0  0  0  0  0  0  0  0  0
   26.0173   31.9624  219.8119 H   0  0  0  0  0  0  0  0  0  0  0  0
   30.7585   31.3819  220.9656 H   0  0  0  0  0  0  0  0  0  0  0  0
   27.3741   30.3007  218.6174 H   0  0  0  0  0  0  0  0  0  0  0  0
   29.7500   30.0072  219.1940 H   0  0  0  0  0  0  0  0  0  0  0  0
   28.4286   35.3045  219.1949 H   0  0  0  0  0  0  0  0  0  0  0  0
   26.4843   34.1688  217.2606 H   0  0  0  0  0  0  0  0  0  0  0  0
   28.2779   36.5778  216.7369 H   0  0  0  0  0  0  0  0  0  0  0  0
   26.4914   36.5939  216.9235 H   0  0  0  0  0  0  0  0  0  0  0  0
   26.4094   35.2102  215.0806 H   0  0  0  0  0  0  0  0  0  0  0  0
   27.2185   32.6691  215.9432 H   0  0  0  0  0  0  0  0  0  0  0  0
   29.9531   31.7675  216.1383 H   0  0  0  0  0  0  0  0  0  0  0  0
   27.8885   30.3099  215.6972 H   0  0  0  0  0  0  0  0  0  0  0  0
   30.1782   29.9104  213.7455 H   0  0  0  0  0  0  0  0  0  0  0  0
   29.2048   28.6716  214.6082 H   0  0  0  0  0  0  0  0  0  0  0  0
   26.9628   31.6526  213.8492 H   0  0  0  0  0  0  0  0  0  0  0  0
   27.2891   29.9582  213.3501 H   0  0  0  0  0  0  0  0  0  0  0  0
   28.4085   31.2723  212.8533 H   0  0  0  0  0  0  0  0  0  0  0  0
   31.4536   28.8717  215.5630 H   0  0  0  0  0  0  0  0  0  0  0  0
   30.1984   29.3781  216.7440 H   0  0  0  0  0  0  0  0  0  0  0  0
   31.1719   30.6169  215.8812 H   0  0  0  0  0  0  0  0  0  0  0  0
   28.4121   34.2029  214.3648 H   0  0  0  0  0  0  0  0  0  0  0  0
   30.3950   34.1149  212.1706 H   0  0  0  0  0  0  0  0  0  0  0  0
   28.0126   35.9676  212.6633 H   0  0  0  0  0  0  0  0  0  0  0  0
   28.4389   36.7906  210.3737 H   0  0  0  0  0  0  0  0  0  0  0  0
   29.9267   35.7871  210.2957 H   0  0  0  0  0  0  0  0  0  0  0  0
   29.8131   37.1345  211.4783 H   0  0  0  0  0  0  0  0  0  0  0  0
   27.4100   33.6455  212.0757 H   0  0  0  0  0  0  0  0  0  0  0  0
   28.4540   33.7482  210.6175 H   0  0  0  0  0  0  0  0  0  0  0  0
   27.0029   34.7975  210.7590 H   0  0  0  0  0  0  0  0  0  0  0  0
   32.0992   35.4587  212.0435 H   0  0  0  0  0  0  0  0  0  0  0  0
   33.7293   36.9028  212.7777 H   0  0  0  0  0  0  0  0  0  0  0  0
   33.0080   36.7244  214.4131 H   0  0  0  0  0  0  0  0  0  0  0  0
   33.0203   38.7410  215.1330 H   0  0  0  0  0  0  0  0  0  0  0  0
   31.1156   40.6081  213.9827 H   0  0  0  0  0  0  0  0  0  0  0  0
   31.4115   40.2008  216.4590 H   0  0  0  0  0  0  0  0  0  0  0  0
   31.4621   41.9258  215.9604 H   0  0  0  0  0  0  0  0  0  0  0  0
   33.7170   40.2586  216.4523 H   0  0  0  0  0  0  0  0  0  0  0  0
   31.4903   42.7086  213.3149 H   0  0  0  0  0  0  0  0  0  0  0  0
   34.0235   43.3155  212.0541 H   0  0  0  0  0  0  0  0  0  0  0  0
   32.9527   45.6433  211.8927 H   0  0  0  0  0  0  0  0  0  0  0  0
   31.4997   44.8975  212.6405 H   0  0  0  0  0  0  0  0  0  0  0  0
   31.8480   43.1512  210.6568 H   0  0  0  0  0  0  0  0  0  0  0  0
   30.2244   44.4515  209.3312 H   0  0  0  0  0  0  0  0  0  0  0  0
   30.5692   45.8985  210.3382 H   0  0  0  0  0  0  0  0  0  0  0  0
   29.8184   44.4454  211.0810 H   0  0  0  0  0  0  0  0  0  0  0  0
   33.9094   44.2355  209.8363 H   0  0  0  0  0  0  0  0  0  0  0  0
   32.9846   45.7439  209.5263 H   0  0  0  0  0  0  0  0  0  0  0  0
   32.6010   44.2499  208.6057 H   0  0  0  0  0  0  0  0  0  0  0  0
   36.0855   45.0674  215.5167 H   0  0  0  0  0  0  0  0  0  0  0  0
   37.8240   46.5693  214.8798 H   0  0  0  0  0  0  0  0  0  0  0  0
   36.7835   47.4200  213.6881 H   0  0  0  0  0  0  0  0  0  0  0  0
   37.9212   44.5921  213.4958 H   0  0  0  0  0  0  0  0  0  0  0  0
   38.1975   45.9725  212.3801 H   0  0  0  0  0  0  0  0  0  0  0  0
   35.8849   46.0484  211.7361 H   0  0  0  0  0  0  0  0  0  0  0  0
   36.2402   44.2888  211.8020 H   0  0  0  0  0  0  0  0  0  0  0  0
   35.5348   46.5614  217.1401 H   0  0  0  0  0  0  0  0  0  0  0  0
   32.7455   46.9311  216.9516 H   0  0  0  0  0  0  0  0  0  0  0  0
   34.4160   46.3944  218.9625 H   0  0  0  0  0  0  0  0  0  0  0  0
   32.7517   47.0282  219.1969 H   0  0  0  0  0  0  0  0  0  0  0  0
   34.1405   49.3592  219.0586 H   0  0  0  0  0  0  0  0  0  0  0  0
   35.3911   48.2769  219.7596 H   0  0  0  0  0  0  0  0  0  0  0  0
   33.1406   47.5552  221.1824 H   0  0  0  0  0  0  0  0  0  0  0  0
   32.8744   49.3136  220.9294 H   0  0  0  0  0  0  0  0  0  0  0  0
   34.2908   49.5066  222.7486 H   0  0  0  0  0  0  0  0  0  0  0  0
   37.4805   48.1462  223.2805 H   0  0  0  0  0  0  0  0  0  0  0  0
   36.2356   49.2802  223.8696 H   0  0  0  0  0  0  0  0  0  0  0  0
   35.5725   47.0874  220.4948 H   0  0  0  0  0  0  0  0  0  0  0  0
   37.1078   46.9146  221.3868 H   0  0  0  0  0  0  0  0  0  0  0  0
   35.3017   49.4404  217.0674 H   0  0  0  0  0  0  0  0  0  0  0  0
   33.1927   51.2512  216.0502 H   0  0  0  0  0  0  0  0  0  0  0  0
   34.7399   52.9613  217.6091 H   0  0  0  0  0  0  0  0  0  0  0  0
   34.5221   51.5076  218.6415 H   0  0  0  0  0  0  0  0  0  0  0  0
   33.7402   52.0236  214.2350 H   0  0  0  0  0  0  0  0  0  0  0  0
   36.1501   53.3377  213.5601 H   0  0  0  0  0  0  0  0  0  0  0  0
   36.3266   50.9772  211.9007 H   0  0  0  0  0  0  0  0  0  0  0  0
   36.3569   50.4836  213.6276 H   0  0  0  0  0  0  0  0  0  0  0  0
   38.8458   50.9669  212.7879 H   0  0  0  0  0  0  0  0  0  0  0  0
  1  2  1  0  0  0  0
  1 84  1  0  0  0  0
  1 85  1  0  0  0  0
  1 86  1  0  0  0  0
  2  3  1  0  0  0  0
  2  5  1  0  0  0  0
  2 87  1  1  0  0  0
  3  4  2  0  0  0  0
  3 12  1  0  0  0  0
  5  6  1  0  0  0  0
  5 88  1  0  0  0  0
  5 89  1  0  0  0  0
  6  7  2  0  0  0  0
  6  8  1  0  0  0  0
  7  9  1  0  0  0  0
  7 90  1  0  0  0  0
  8 10  2  0  0  0  0
  8 91  1  0  0  0  0
  9 11  2  0  0  0  0
  9 92  1  0  0  0  0
 10 11  1  0  0  0  0
 10 93  1  0  0  0  0
 11 94  1  0  0  0  0
 12 13  1  0  0  0  0
 12 95  1  0  0  0  0
 13 14  1  0  0  0  0
 13 16  1  0  0  0  0
 13 96  1  6  0  0  0
 14 15  2  0  0  0  0
 14 18  1  0  0  0  0
 16 17  1  0  0  0  0
 16 97  1  0  0  0  0
 16 98  1  0  0  0  0
 17 99  1  0  0  0  0
 18 19  1  0  0  0  0
 18100  1  0  0  0  0
 19 20  1  0  0  0  0
 19 22  1  0  0  0  0
 19101  1  1  0  0  0
 20 21  2  0  0  0  0
 20 26  1  0  0  0  0
 22 23  1  0  0  0  0
 22 24  1  0  0  0  0
 22102  1  1  0  0  0
 23 25  1  0  0  0  0
 23103  1  0  0  0  0
 23104  1  0  0  0  0
 24105  1  0  0  0  0
 24106  1  0  0  0  0
 24107  1  0  0  0  0
 25108  1  0  0  0  0
 25109  1  0  0  0  0
 25110  1  0  0  0  0
 26 27  1  0  0  0  0
 26111  1  0  0  0  0
 27 28  1  0  0  0  0
 27 30  1  0  0  0  0
 27112  1  6  0  0  0
 28 29  2  0  0  0  0
 28 33  1  0  0  0  0
 30 31  1  0  0  0  0
 30 32  1  0  0  0  0
 30113  1  0  0  0  0
 31114  1  0  0  0  0
 31115  1  0  0  0  0
 31116  1  0  0  0  0
 32117  1  0  0  0  0
 32118  1  0  0  0  0
 32119  1  0  0  0  0
 33 34  1  0  0  0  0
 33120  1  0  0  0  0
 34 35  1  0  0  0  0
 34121  1  0  0  0  0
 34122  1  0  0  0  0
 35 36  2  0  0  0  0
 35 37  1  0  0  0  0
 37 38  1  0  0  0  0
 37123  1  0  0  0  0
 38 39  1  0  0  0  0
 38 41  1  0  0  0  0
 38124  1  6  0  0  0
 39 40  2  0  0  0  0
 39 43  1  0  0  0  0
 41 42  1  0  0  0  0
 41125  1  0  0  0  0
 41126  1  0  0  0  0
 42127  1  0  0  0  0
 43 44  1  0  0  0  0
 43128  1  0  0  0  0
 44 45  1  0  0  0  0
 44 47  1  0  0  0  0
 44129  1  6  0  0  0
 45 46  2  0  0  0  0
 45 51  1  0  0  0  0
 47 48  1  0  0  0  0
 47130  1  0  0  0  0
 47131  1  0  0  0  0
 48 49  1  0  0  0  0
 48 50  1  0  0  0  0
 48132  1  0  0  0  0
 49133  1  0  0  0  0
 49134  1  0  0  0  0
 49135  1  0  0  0  0
 50136  1  0  0  0  0
 50137  1  0  0  0  0
 50138  1  0  0  0  0
 51 52  1  0  0  0  0
 51 57  1  0  0  0  0
 52 53  1  0  0  0  0
 52 55  1  0  0  0  0
 52139  1  1  0  0  0
 53 54  2  0  0  0  0
 53 58  1  0  0  0  0
 55 56  1  0  0  0  0
 55140  1  0  0  0  0
 55141  1  0  0  0  0
 56 57  1  0  0  0  0
 56142  1  0  0  0  0
 56143  1  0  0  0  0
 57144  1  0  0  0  0
 57145  1  0  0  0  0
 58 59  1  0  0  0  0
 58146  1  0  0  0  0
 59 60  1  0  0  0  0
 59 62  1  0  0  0  0
 59147  1  6  0  0  0
 60 61  2  0  0  0  0
 60 69  1  0  0  0  0
 62 63  1  0  0  0  0
 62148  1  0  0  0  0
 62149  1  0  0  0  0
 63 64  1  0  0  0  0
 63150  1  0  0  0  0
 63151  1  0  0  0  0
 64 65  1  0  0  0  0
 64152  1  0  0  0  0
 64153  1  0  0  0  0
 65 66  1  0  0  0  0
 65154  1  0  0  0  0
 66 67  1  0  0  0  0
 66 68  1  0  0  0  0
 67155  1  0  0  0  0
 67156  1  0  0  0  0
 68157  1  0  0  0  0
 68158  1  0  0  0  0
 69 70  1  0  0  0  0
 69159  1  0  0  0  0
 70 71  1  0  0  0  0
 70 73  1  0  0  0  0
 70160  1  6  0  0  0
 71 72  2  0  0  0  0
 71 77  1  0  0  0  0
 73 74  1  0  0  0  0
 73161  1  0  0  0  0
 73162  1  0  0  0  0
 74 75  1  0  0  0  0
 74 76  2  0  0  0  0
 77 78  1  0  0  0  0
 77163  1  0  0  0  0
 78 79  1  0  0  0  0
 78 81  1  0  0  0  0
 78164  1  1  0  0  0
 79 80  1  0  0  0  0
 79 83  2  0  0  0  0
 81 82  1  0  0  0  0
 81165  1  0  0  0  0
 81166  1  0  0  0  0
 82167  1  0  0  0  0
M  CHG  3   1   1  75  -1  80  -1
M  END
