4udb_ligand
 OpenBabel08222323353D

 72 77  0  0  1  0  0  0  0  0999 V2000
  -25.7680    1.4550    1.4950 C   0  0  0  0  0  0  0  0  0  0  0  0
  -27.1310    1.5260    2.2100 C   0  0  2  0  0  0  0  0  0  0  0  0
  -28.2830    1.7540    1.2250 C   0  0  0  0  0  0  0  0  0  0  0  0
  -28.2380    3.1190    0.5490 C   0  0  1  0  0  0  0  0  0  0  0  0
  -28.1190    4.3110    1.5230 C   0  0  1  0  0  0  0  0  0  0  0  0
  -27.1220    4.0770    2.6920 C   0  0  2  0  0  0  0  0  0  0  0  0
  -27.2150    2.6480    3.2410 C   0  0  2  0  0  0  0  0  0  0  0  0
  -26.3440    2.1580    4.3820 C   0  0  0  0  0  0  0  0  0  0  0  0
  -26.5520    0.6450    4.3840 C   0  0  2  0  0  0  0  0  0  0  0  0
  -27.3040    0.2860    3.1070 C   0  0  1  0  0  0  0  0  0  0  0  0
  -28.6720    0.0860    3.5160 O   0  0  0  0  0  0  0  0  0  0  0  0
  -28.6310   -0.2130    4.9070 C   0  0  1  0  0  0  0  0  0  0  0  0
  -27.4210    0.2950    5.4560 O   0  0  0  0  0  0  0  0  0  0  0  0
  -29.7380    0.4350    5.6980 C   0  0  0  0  0  0  0  0  0  0  0  0
  -30.7070    1.2700    4.8990 C   0  0  0  0  0  0  0  0  0  0  0  0
  -31.6900    1.9710    5.8180 C   0  0  0  0  0  0  0  0  0  0  0  0
  -32.3910    1.0030    6.7450 C   0  0  0  0  0  0  0  0  0  0  0  0
  -31.4090    0.1060    7.4750 C   0  0  0  0  0  0  0  0  0  0  0  0
  -30.4870   -0.6020    6.5010 C   0  0  0  0  0  0  0  0  0  0  0  0
  -26.8080   -1.0270    2.5000 C   0  0  0  0  0  0  0  0  0  0  0  0
  -25.7210   -1.4950    2.8020 O   0  0  0  0  0  0  0  0  0  0  0  0
  -27.6940   -1.7740    1.5230 C   0  0  0  0  0  0  0  0  0  0  0  0
  -26.8740   -2.6100    0.7060 O   0  0  0  0  0  0  0  0  0  0  0  0
  -27.3850    5.1320    3.7740 C   0  0  0  0  0  0  0  0  0  0  0  0
  -27.2790    6.5600    3.2370 C   0  0  0  0  0  0  0  0  0  0  0  0
  -28.0800    6.7080    1.9790 C   0  0  0  0  0  0  0  0  0  0  0  0
  -28.9730    7.7010    1.8980 C   0  0  0  0  0  0  0  0  0  0  0  0
  -29.8050    7.8390    0.6680 C   0  0  0  0  0  0  0  0  0  0  0  0
  -30.5930    8.7610    0.5510 O   0  0  0  0  0  0  0  0  0  0  0  0
  -29.7120    6.8360   -0.4170 C   0  0  0  0  0  0  0  0  0  0  0  0
  -28.8050    5.8650   -0.2690 C   0  0  0  0  0  0  0  0  0  0  0  0
  -27.8590    5.6950    0.8830 C   0  0  2  0  0  0  0  0  0  0  0  0
  -26.4550    5.9080    0.2970 C   0  0  0  0  0  0  0  0  0  0  0  0
  -27.2200    3.0930   -0.4550 O   0  0  0  0  0  0  0  0  0  0  0  0
  -25.6436    2.3403    0.8541 H   0  0  0  0  0  0  0  0  0  0  0  0
  -25.7250    0.5460    0.8770 H   0  0  0  0  0  0  0  0  0  0  0  0
  -24.9623    1.4281    2.2434 H   0  0  0  0  0  0  0  0  0  0  0  0
  -29.2329    1.6671    1.7728 H   0  0  0  0  0  0  0  0  0  0  0  0
  -28.2359    0.9777    0.4471 H   0  0  0  0  0  0  0  0  0  0  0  0
  -29.1989    3.2500    0.0299 H   0  0  0  0  0  0  0  0  0  0  0  0
  -29.1129    4.3875    1.9881 H   0  0  0  0  0  0  0  0  0  0  0  0
  -26.1005    4.2215    2.3105 H   0  0  0  0  0  0  0  0  0  0  0  0
  -28.2396    2.6151    3.6399 H   0  0  0  0  0  0  0  0  0  0  0  0
  -26.6670    2.5981    5.3370 H   0  0  0  0  0  0  0  0  0  0  0  0
  -25.2878    2.4069    4.2021 H   0  0  0  0  0  0  0  0  0  0  0  0
  -25.5917    0.1134    4.4553 H   0  0  0  0  0  0  0  0  0  0  0  0
  -28.6808   -1.3043    5.0353 H   0  0  0  0  0  0  0  0  0  0  0  0
  -29.2521    1.1177    6.4107 H   0  0  0  0  0  0  0  0  0  0  0  0
  -31.2605    0.6186    4.2067 H   0  0  0  0  0  0  0  0  0  0  0  0
  -30.1476    2.0236    4.3253 H   0  0  0  0  0  0  0  0  0  0  0  0
  -32.4449    2.4846    5.2046 H   0  0  0  0  0  0  0  0  0  0  0  0
  -31.1447    2.7101    6.4233 H   0  0  0  0  0  0  0  0  0  0  0  0
  -33.0737    0.3754    6.1534 H   0  0  0  0  0  0  0  0  0  0  0  0
  -32.9684    1.5752    7.4861 H   0  0  0  0  0  0  0  0  0  0  0  0
  -31.9688   -0.6458    8.0507 H   0  0  0  0  0  0  0  0  0  0  0  0
  -30.8050    0.7180    8.1610 H   0  0  0  0  0  0  0  0  0  0  0  0
  -29.7720   -1.2267    7.0564 H   0  0  0  0  0  0  0  0  0  0  0  0
  -31.0798   -1.2357    5.8250 H   0  0  0  0  0  0  0  0  0  0  0  0
  -28.2353   -1.0551    0.8904 H   0  0  0  0  0  0  0  0  0  0  0  0
  -28.4163   -2.3919    2.0766 H   0  0  0  0  0  0  0  0  0  0  0  0
  -26.4070   -3.2281    1.2558 H   0  0  0  0  0  0  0  0  0  0  0  0
  -26.6475    5.0025    4.5798 H   0  0  0  0  0  0  0  0  0  0  0  0
  -28.3977    4.9805    4.1759 H   0  0  0  0  0  0  0  0  0  0  0  0
  -26.2245    6.7894    3.0239 H   0  0  0  0  0  0  0  0  0  0  0  0
  -27.6610    7.2608    3.9939 H   0  0  0  0  0  0  0  0  0  0  0  0
  -29.0913    8.4022    2.7228 H   0  0  0  0  0  0  0  0  0  0  0  0
  -30.3533    6.8868   -1.2957 H   0  0  0  0  0  0  0  0  0  0  0  0
  -28.7471    5.1232   -1.0642 H   0  0  0  0  0  0  0  0  0  0  0  0
  -26.3848    6.9201   -0.1281 H   0  0  0  0  0  0  0  0  0  0  0  0
  -26.2707    5.1650   -0.4929 H   0  0  0  0  0  0  0  0  0  0  0  0
  -25.7041    5.7916    1.0924 H   0  0  0  0  0  0  0  0  0  0  0  0
  -27.3509    2.3388   -1.0177 H   0  0  0  0  0  0  0  0  0  0  0  0
  1 35  1  0  0  0  0
  1 36  1  0  0  0  0
  1 37  1  0  0  0  0
  2  1  1  6  0  0  0
  2  3  1  0  0  0  0
  2  7  1  0  0  0  0
  2 10  1  0  0  0  0
  3  4  1  0  0  0  0
  3 38  1  0  0  0  0
  3 39  1  0  0  0  0
  4  5  1  0  0  0  0
  4 34  1  0  0  0  0
  4 40  1  6  0  0  0
  5  6  1  0  0  0  0
  5 32  1  0  0  0  0
  5 41  1  1  0  0  0
  6  7  1  0  0  0  0
  6 24  1  0  0  0  0
  6 42  1  6  0  0  0
  7  8  1  0  0  0  0
  7 43  1  1  0  0  0
  8  9  1  0  0  0  0
  8 44  1  0  0  0  0
  8 45  1  0  0  0  0
  9 10  1  0  0  0  0
  9 13  1  0  0  0  0
  9 46  1  1  0  0  0
 10 11  1  0  0  0  0
 10 20  1  6  0  0  0
 11 12  1  0  0  0  0
 12 13  1  0  0  0  0
 12 14  1  0  0  0  0
 12 47  1  1  0  0  0
 14 15  1  0  0  0  0
 14 19  1  0  0  0  0
 14 48  1  0  0  0  0
 15 16  1  0  0  0  0
 15 49  1  0  0  0  0
 15 50  1  0  0  0  0
 16 17  1  0  0  0  0
 16 51  1  0  0  0  0
 16 52  1  0  0  0  0
 17 18  1  0  0  0  0
 17 53  1  0  0  0  0
 17 54  1  0  0  0  0
 18 19  1  0  0  0  0
 18 55  1  0  0  0  0
 18 56  1  0  0  0  0
 19 57  1  0  0  0  0
 19 58  1  0  0  0  0
 20 21  2  0  0  0  0
 20 22  1  0  0  0  0
 22 23  1  0  0  0  0
 22 59  1  0  0  0  0
 22 60  1  0  0  0  0
 23 61  1  0  0  0  0
 24 25  1  0  0  0  0
 24 62  1  0  0  0  0
 24 63  1  0  0  0  0
 25 26  1  0  0  0  0
 25 64  1  0  0  0  0
 25 65  1  0  0  0  0
 26 27  2  0  0  0  0
 26 32  1  0  0  0  0
 27 28  1  0  0  0  0
 27 66  1  0  0  0  0
 28 29  2  0  0  0  0
 28 30  1  0  0  0  0
 30 31  2  0  0  0  0
 30 67  1  0  0  0  0
 31 32  1  0  0  0  0
 31 68  1  0  0  0  0
 32 33  1  6  0  0  0
 33 69  1  0  0  0  0
 33 70  1  0  0  0  0
 33 71  1  0  0  0  0
 34 72  1  0  0  0  0
M  END
