4uil_ligand
 OpenBabel08222323353D

 49 52  0  0  1  0  0  0  0  0999 V2000
   -2.7130    0.5430  -46.3040 O   0  0  0  0  0  0  0  0  0  0  0  0
   -2.9000    1.2190  -45.0860 C   0  0  1  0  0  0  0  0  0  0  0  0
   -1.9640    2.4710  -45.0010 C   0  0  1  0  0  0  0  0  0  0  0  0
   -0.4580    2.1350  -44.9740 N   0  3  1  0  0  0  0  0  0  0  0  0
    0.0910    1.8380  -46.3790 C   0  0  0  0  0  0  0  0  0  0  0  0
   -0.0850    3.0730  -47.2650 C   0  0  0  0  0  0  0  0  0  0  0  0
    0.3240    3.4370  -44.4120 C   0  0  0  0  0  0  0  0  0  0  0  0
   -0.0330    4.6290  -45.2950 C   0  0  2  0  0  0  0  0  0  0  0  0
   -0.7900    5.6570  -44.5130 C   0  0  0  0  0  0  0  0  0  0  0  0
   -0.4510    6.9400  -44.4500 C   0  0  0  0  0  0  0  0  0  0  0  0
   -0.8550    4.1600  -46.5110 C   0  0  2  0  0  0  0  0  0  0  0  0
   -2.1880    3.5420  -46.0810 C   0  0  0  0  0  0  0  0  0  0  0  0
   -4.3170    1.6560  -44.8670 C   0  0  0  0  0  0  0  0  0  0  0  0
   -5.1720    1.8410  -45.9750 C   0  0  0  0  0  0  0  0  0  0  0  0
   -6.4770    2.2550  -45.7620 C   0  0  0  0  0  0  0  0  0  0  0  0
   -7.0260    2.5120  -44.5440 N   0  0  0  0  0  0  0  0  0  0  0  0
   -6.1940    2.3410  -43.4480 C   0  0  0  0  0  0  0  0  0  0  0  0
   -4.8200    1.9130  -43.5640 C   0  0  0  0  0  0  0  0  0  0  0  0
   -4.0660    1.7690  -42.3860 C   0  0  0  0  0  0  0  0  0  0  0  0
   -6.7480    2.6060  -42.1750 C   0  0  0  0  0  0  0  0  0  0  0  0
   -5.9740    2.4550  -41.0260 C   0  0  0  0  0  0  0  0  0  0  0  0
   -4.6580    2.0420  -41.1530 C   0  0  0  0  0  0  0  0  0  0  0  0
   -3.8290    1.8710  -40.0560 O   0  0  0  0  0  0  0  0  0  0  0  0
   -2.7630    2.7730  -39.9400 C   0  0  0  0  0  0  0  0  0  0  0  0
   -3.2883   -0.2123  -46.3373 H   0  0  0  0  0  0  0  0  0  0  0  0
   -2.6296    0.5262  -44.2755 H   0  0  0  0  0  0  0  0  0  0  0  0
   -2.2009    2.9450  -44.0371 H   0  0  0  0  0  0  0  0  0  0  0  0
   -0.2993    1.3410  -44.3736 H   0  0  0  0  0  0  0  0  0  0  0  0
   -0.4585    0.9913  -46.8163 H   0  0  0  0  0  0  0  0  0  0  0  0
    1.1593    1.5853  -46.3097 H   0  0  0  0  0  0  0  0  0  0  0  0
   -0.6438    2.7938  -48.1704 H   0  0  0  0  0  0  0  0  0  0  0  0
    0.9046    3.4600  -47.5495 H   0  0  0  0  0  0  0  0  0  0  0  0
    1.4095    3.2618  -44.4449 H   0  0  0  0  0  0  0  0  0  0  0  0
    0.0161    3.6369  -43.3751 H   0  0  0  0  0  0  0  0  0  0  0  0
    0.8992    5.0859  -45.6586 H   0  0  0  0  0  0  0  0  0  0  0  0
   -1.6721    5.3334  -43.9624 H   0  0  0  0  0  0  0  0  0  0  0  0
   -1.0493    7.6329  -43.8603 H   0  0  0  0  0  0  0  0  0  0  0  0
    0.4252    7.2987  -44.9881 H   0  0  0  0  0  0  0  0  0  0  0  0
   -1.0411    5.0185  -47.1731 H   0  0  0  0  0  0  0  0  0  0  0  0
   -2.8392    4.3315  -45.6778 H   0  0  0  0  0  0  0  0  0  0  0  0
   -2.6705    3.0793  -46.9545 H   0  0  0  0  0  0  0  0  0  0  0  0
   -4.8115    1.6611  -46.9814 H   0  0  0  0  0  0  0  0  0  0  0  0
   -7.1093    2.3841  -46.6330 H   0  0  0  0  0  0  0  0  0  0  0  0
   -3.0318    1.4480  -42.4358 H   0  0  0  0  0  0  0  0  0  0  0  0
   -7.7797    2.9282  -42.0920 H   0  0  0  0  0  0  0  0  0  0  0  0
   -6.3953    2.6576  -40.0480 H   0  0  0  0  0  0  0  0  0  0  0  0
   -2.1806    2.5381  -39.0369 H   0  0  0  0  0  0  0  0  0  0  0  0
   -3.1561    3.7977  -39.8665 H   0  0  0  0  0  0  0  0  0  0  0  0
   -2.1154    2.6912  -40.8254 H   0  0  0  0  0  0  0  0  0  0  0  0
  1  2  1  0  0  0  0
  1 25  1  0  0  0  0
  2  3  1  0  0  0  0
  2 13  1  0  0  0  0
  2 26  1  1  0  0  0
  3  4  1  0  0  0  0
  3 12  1  0  0  0  0
  3 27  1  1  0  0  0
  4  5  1  0  0  0  0
  4  7  1  0  0  0  0
  4 28  1  1  0  0  0
  5  6  1  0  0  0  0
  5 29  1  0  0  0  0
  5 30  1  0  0  0  0
  6 11  1  0  0  0  0
  6 31  1  0  0  0  0
  6 32  1  0  0  0  0
  7  8  1  0  0  0  0
  7 33  1  0  0  0  0
  7 34  1  0  0  0  0
  8  9  1  0  0  0  0
  8 11  1  0  0  0  0
  8 35  1  6  0  0  0
  9 10  2  0  0  0  0
  9 36  1  0  0  0  0
 10 37  1  0  0  0  0
 10 38  1  0  0  0  0
 11 12  1  0  0  0  0
 11 39  1  6  0  0  0
 12 40  1  0  0  0  0
 12 41  1  0  0  0  0
 13 14  2  0  0  0  0
 13 18  1  0  0  0  0
 14 15  1  0  0  0  0
 14 42  1  0  0  0  0
 15 16  2  0  0  0  0
 15 43  1  0  0  0  0
 16 17  1  0  0  0  0
 17 18  2  0  0  0  0
 17 20  1  0  0  0  0
 18 19  1  0  0  0  0
 19 22  2  0  0  0  0
 19 44  1  0  0  0  0
 20 21  2  0  0  0  0
 20 45  1  0  0  0  0
 21 22  1  0  0  0  0
 21 46  1  0  0  0  0
 22 23  1  0  0  0  0
 23 24  1  0  0  0  0
 24 47  1  0  0  0  0
 24 48  1  0  0  0  0
 24 49  1  0  0  0  0
M  CHG  1   4   1
M  END
