4uiu_ligand
 OpenBabel08222323353D

 56 59  0  0  0  0  0  0  0  0999 V2000
   -5.8220   18.0850   17.4410 O   0  0  0  0  0  0  0  0  0  0  0  0
   -4.4840   18.0840   17.9660 S   0  0  0  0  0  0  0  0  0  0  0  0
   -4.2100   18.8720   19.1360 O   0  0  0  0  0  0  0  0  0  0  0  0
   -3.9620   16.4200   18.2410 C   0  0  0  0  0  0  0  0  0  0  0  0
   -2.4580   16.3480   18.5650 C   0  0  0  0  0  0  0  0  0  0  0  0
   -3.3510   18.5200   16.6850 C   0  0  0  0  0  0  0  0  0  0  0  0
   -1.9090   18.3630   17.1740 C   0  0  0  0  0  0  0  0  0  0  0  0
   -1.4950   16.9490   17.5490 C   0  0  0  0  0  0  0  0  0  0  0  0
   -1.3780   16.1030   16.3610 N   0  0  0  0  0  0  0  0  0  0  0  0
   -0.2880   16.0940   15.5710 C   0  0  0  0  0  0  0  0  0  0  0  0
    0.7600   16.6720   15.8630 O   0  0  0  0  0  0  0  0  0  0  0  0
   -0.3870   15.3200   14.3130 C   0  0  0  0  0  0  0  0  0  0  0  0
   -1.4000   14.5930   13.7580 C   0  0  0  0  0  0  0  0  0  0  0  0
    1.0030   15.3610   13.2680 S   0  0  0  0  0  0  0  0  0  0  0  0
    0.1750   14.4300   12.0510 C   0  0  0  0  0  0  0  0  0  0  0  0
   -1.0970   14.0850   12.4660 C   0  0  0  0  0  0  0  0  0  0  0  0
   -1.9570   13.3290   11.5690 C   0  0  0  0  0  0  0  0  0  0  0  0
   -3.0650   12.9160   11.8850 O   0  0  0  0  0  0  0  0  0  0  0  0
   -1.4620   13.0360   10.3030 N   0  0  0  0  0  0  0  0  0  0  0  0
   -2.3450   12.3150    9.3870 C   0  0  0  0  0  0  0  0  0  0  0  0
   -0.2170   13.4070    9.9120 C   0  0  0  0  0  0  0  0  0  0  0  0
    0.6550   14.0680   10.7110 C   0  0  0  0  0  0  0  0  0  0  0  0
    2.0320   14.3460   10.2270 C   0  0  0  0  0  0  0  0  0  0  0  0
    2.6580   15.5590   10.4990 C   0  0  0  0  0  0  0  0  0  0  0  0
    3.9420   15.8130   10.0520 C   0  0  0  0  0  0  0  0  0  0  0  0
    2.7030   13.3880    9.4710 C   0  0  0  0  0  0  0  0  0  0  0  0
    3.9770   13.6370    8.9980 C   0  0  0  0  0  0  0  0  0  0  0  0
    4.6890   12.7830    8.1990 O   0  0  0  0  0  0  0  0  0  0  0  0
    3.9580   11.9250    7.3250 C   0  0  0  0  0  0  0  0  0  0  0  0
    4.6120   14.8550    9.3060 C   0  0  0  0  0  0  0  0  0  0  0  0
    5.8970   14.9820    8.8550 O   0  0  0  0  0  0  0  0  0  0  0  0
    6.8720   15.4640    9.7740 C   0  0  0  0  0  0  0  0  0  0  0  0
   -4.1615   15.8282   17.3355 H   0  0  0  0  0  0  0  0  0  0  0  0
   -4.5301   16.0017   19.0850 H   0  0  0  0  0  0  0  0  0  0  0  0
   -2.1954   15.2861   18.6811 H   0  0  0  0  0  0  0  0  0  0  0  0
   -2.3002   16.8713   19.5196 H   0  0  0  0  0  0  0  0  0  0  0  0
   -3.5221   19.5658   16.3899 H   0  0  0  0  0  0  0  0  0  0  0  0
   -3.5135   17.8630   15.8179 H   0  0  0  0  0  0  0  0  0  0  0  0
   -1.7809   19.0001   18.0615 H   0  0  0  0  0  0  0  0  0  0  0  0
   -1.2399   18.7108   16.3732 H   0  0  0  0  0  0  0  0  0  0  0  0
   -0.5025   17.0035   18.0201 H   0  0  0  0  0  0  0  0  0  0  0  0
   -2.1430   15.5038   16.1250 H   0  0  0  0  0  0  0  0  0  0  0  0
   -2.3514   14.4186   14.2584 H   0  0  0  0  0  0  0  0  0  0  0  0
   -1.8271   12.1526    8.4303 H   0  0  0  0  0  0  0  0  0  0  0  0
   -3.2564   12.9063    9.2147 H   0  0  0  0  0  0  0  0  0  0  0  0
   -2.6156   11.3438    9.8269 H   0  0  0  0  0  0  0  0  0  0  0  0
    0.0991   13.1598    8.8996 H   0  0  0  0  0  0  0  0  0  0  0  0
    2.1316   16.3156   11.0695 H   0  0  0  0  0  0  0  0  0  0  0  0
    4.4225   16.7567   10.2837 H   0  0  0  0  0  0  0  0  0  0  0  0
    2.2227   12.4411    9.2523 H   0  0  0  0  0  0  0  0  0  0  0  0
    4.6599   11.3021    6.7512 H   0  0  0  0  0  0  0  0  0  0  0  0
    3.3569   12.5328    6.6327 H   0  0  0  0  0  0  0  0  0  0  0  0
    3.2936   11.2784    7.9170 H   0  0  0  0  0  0  0  0  0  0  0  0
    7.8518   15.5138    9.2764 H   0  0  0  0  0  0  0  0  0  0  0  0
    6.9325   14.7826   10.6354 H   0  0  0  0  0  0  0  0  0  0  0  0
    6.5851   16.4679   10.1201 H   0  0  0  0  0  0  0  0  0  0  0  0
  1  2  2  0  0  0  0
  2  3  2  0  0  0  0
  2  4  1  0  0  0  0
  2  6  1  0  0  0  0
  4  5  1  0  0  0  0
  4 33  1  0  0  0  0
  4 34  1  0  0  0  0
  5  8  1  0  0  0  0
  5 35  1  0  0  0  0
  5 36  1  0  0  0  0
  6  7  1  0  0  0  0
  6 37  1  0  0  0  0
  6 38  1  0  0  0  0
  7  8  1  0  0  0  0
  7 39  1  0  0  0  0
  7 40  1  0  0  0  0
  8  9  1  0  0  0  0
  8 41  1  0  0  0  0
  9 10  1  0  0  0  0
  9 42  1  0  0  0  0
 10 11  2  0  0  0  0
 10 12  1  0  0  0  0
 12 13  2  0  0  0  0
 12 14  1  0  0  0  0
 13 16  1  0  0  0  0
 13 43  1  0  0  0  0
 14 15  1  0  0  0  0
 15 16  2  0  0  0  0
 15 22  1  0  0  0  0
 16 17  1  0  0  0  0
 17 18  2  0  0  0  0
 17 19  1  0  0  0  0
 19 20  1  0  0  0  0
 19 21  1  0  0  0  0
 20 44  1  0  0  0  0
 20 45  1  0  0  0  0
 20 46  1  0  0  0  0
 21 22  2  0  0  0  0
 21 47  1  0  0  0  0
 22 23  1  0  0  0  0
 23 24  2  0  0  0  0
 23 26  1  0  0  0  0
 24 25  1  0  0  0  0
 24 48  1  0  0  0  0
 25 30  2  0  0  0  0
 25 49  1  0  0  0  0
 26 27  2  0  0  0  0
 26 50  1  0  0  0  0
 27 28  1  0  0  0  0
 27 30  1  0  0  0  0
 28 29  1  0  0  0  0
 29 51  1  0  0  0  0
 29 52  1  0  0  0  0
 29 53  1  0  0  0  0
 30 31  1  0  0  0  0
 31 32  1  0  0  0  0
 32 54  1  0  0  0  0
 32 55  1  0  0  0  0
 32 56  1  0  0  0  0
M  END
