4uiw_ligand
 OpenBabel08222323353D

 56 59  0  0  1  0  0  0  0  0999 V2000
   -2.7760   11.7730    8.3110 C   0  0  0  0  0  0  0  0  0  0  0  0
   -1.7550   10.9550    9.0700 C   0  0  0  0  0  0  0  0  0  0  0  0
   -1.0070   11.8680    9.9400 N   0  0  0  0  0  0  0  0  0  0  0  0
    0.2130   12.3480    9.5360 C   0  0  0  0  0  0  0  0  0  0  0  0
    0.9720   13.2050   10.2590 C   0  0  0  0  0  0  0  0  0  0  0  0
    2.2970   13.6510    9.7170 C   0  0  0  0  0  0  0  0  0  0  0  0
    3.1390   12.7430    9.0790 C   0  0  0  0  0  0  0  0  0  0  0  0
    4.3670   13.1530    8.5790 C   0  0  0  0  0  0  0  0  0  0  0  0
    4.7560   14.4710    8.6970 C   0  0  0  0  0  0  0  0  0  0  0  0
    3.9250   15.3960    9.3150 C   0  0  0  0  0  0  0  0  0  0  0  0
    2.7010   14.9790    9.8320 C   0  0  0  0  0  0  0  0  0  0  0  0
    4.3350   16.8310    9.4280 C   0  0  0  0  0  0  0  0  0  0  0  0
    5.5980   17.0390    9.0310 F   0  0  0  0  0  0  0  0  0  0  0  0
    4.1970   17.3130   10.6720 F   0  0  0  0  0  0  0  0  0  0  0  0
    3.5640   17.6020    8.7100 F   0  0  0  0  0  0  0  0  0  0  0  0
    0.4080   13.6360   11.5150 C   0  0  0  0  0  0  0  0  0  0  0  0
    1.1400   14.7290   12.6540 S   0  0  0  0  0  0  0  0  0  0  0  0
   -0.2180   14.6090   13.7110 C   0  0  0  0  0  0  0  0  0  0  0  0
   -1.1610   13.7560   13.2250 C   0  0  0  0  0  0  0  0  0  0  0  0
   -0.8490   13.1640   11.9860 C   0  0  0  0  0  0  0  0  0  0  0  0
   -1.5950   12.2360   11.1510 C   0  0  0  0  0  0  0  0  0  0  0  0
   -2.6980   11.8050   11.4980 O   0  0  0  0  0  0  0  0  0  0  0  0
   -0.3840   15.3600   14.9370 C   0  0  1  0  0  3  0  0  0  0  0  0
    0.7040   15.6840   15.6570 N   0  0  0  0  0  0  0  0  0  0  0  0
   -1.5550   15.8060   15.1510 N   0  0  0  0  0  0  0  0  0  0  0  0
   -2.0230   16.6330   16.2420 C   0  0  0  0  0  0  0  0  0  0  0  0
   -2.8000   17.7960   15.6730 C   0  0  0  0  0  0  0  0  0  0  0  0
   -3.2670   18.7400   16.7610 C   0  0  0  0  0  0  0  0  0  0  0  0
   -4.4550   17.9490   17.7990 S   0  0  0  0  0  0  0  0  0  0  0  0
   -5.5510   17.4910   16.9940 O   0  0  0  0  0  0  0  0  0  0  0  0
   -4.7500   18.8030   18.9120 O   0  0  0  0  0  0  0  0  0  0  0  0
   -3.5340   16.5540   18.3680 C   0  0  0  0  0  0  0  0  0  0  0  0
   -2.8640   15.8150   17.2060 C   0  0  0  0  0  0  0  0  0  0  0  0
   -3.3546   11.1133    7.6477 H   0  0  0  0  0  0  0  0  0  0  0  0
   -2.2606   12.5366    7.7099 H   0  0  0  0  0  0  0  0  0  0  0  0
   -3.4554   12.2640    9.0233 H   0  0  0  0  0  0  0  0  0  0  0  0
   -1.0687   10.4644    8.3640 H   0  0  0  0  0  0  0  0  0  0  0  0
   -2.2635   10.1918    9.6774 H   0  0  0  0  0  0  0  0  0  0  0  0
    0.5958   12.0184    8.5713 H   0  0  0  0  0  0  0  0  0  0  0  0
    2.8328   11.7086    8.9723 H   0  0  0  0  0  0  0  0  0  0  0  0
    5.0211   12.4366    8.0952 H   0  0  0  0  0  0  0  0  0  0  0  0
    5.7161   14.7866    8.3050 H   0  0  0  0  0  0  0  0  0  0  0  0
    2.0563   15.6950   10.3288 H   0  0  0  0  0  0  0  0  0  0  0  0
   -2.0887   13.5468   13.7555 H   0  0  0  0  0  0  0  0  0  0  0  0
    0.6023   16.2182   16.5318 H   0  0  0  0  0  0  0  0  0  0  0  0
    1.6393   15.3981   15.3339 H   0  0  0  0  0  0  0  0  0  0  0  0
   -2.2663   15.5433   14.4539 H   0  0  0  0  0  0  0  0  0  0  0  0
   -1.1534   17.0254   16.7895 H   0  0  0  0  0  0  0  0  0  0  0  0
   -3.6780   17.4096   15.1347 H   0  0  0  0  0  0  0  0  0  0  0  0
   -2.1550   18.3484   14.9738 H   0  0  0  0  0  0  0  0  0  0  0  0
   -3.7243   19.6272   16.2986 H   0  0  0  0  0  0  0  0  0  0  0  0
   -2.4032   19.0473   17.3687 H   0  0  0  0  0  0  0  0  0  0  0  0
   -4.2149   15.8629   18.8865 H   0  0  0  0  0  0  0  0  0  0  0  0
   -2.7583   16.8985   19.0677 H   0  0  0  0  0  0  0  0  0  0  0  0
   -2.2103   15.0441   17.6400 H   0  0  0  0  0  0  0  0  0  0  0  0
   -3.6605   15.3330   16.6201 H   0  0  0  0  0  0  0  0  0  0  0  0
  1  2  1  0  0  0  0
  1 34  1  0  0  0  0
  1 35  1  0  0  0  0
  1 36  1  0  0  0  0
  2  3  1  0  0  0  0
  2 37  1  0  0  0  0
  2 38  1  0  0  0  0
  3  4  1  0  0  0  0
  3 21  1  0  0  0  0
  4  5  2  0  0  0  0
  4 39  1  0  0  0  0
  5  6  1  0  0  0  0
  5 16  1  0  0  0  0
  6  7  2  0  0  0  0
  6 11  1  0  0  0  0
  7  8  1  0  0  0  0
  7 40  1  0  0  0  0
  8  9  2  0  0  0  0
  8 41  1  0  0  0  0
  9 10  1  0  0  0  0
  9 42  1  0  0  0  0
 10 11  2  0  0  0  0
 10 12  1  0  0  0  0
 11 43  1  0  0  0  0
 12 13  1  0  0  0  0
 12 14  1  0  0  0  0
 12 15  1  0  0  0  0
 16 17  1  0  0  0  0
 16 20  2  0  0  0  0
 17 18  1  0  0  0  0
 18 19  2  0  0  0  0
 18 23  1  0  0  0  0
 19 20  1  0  0  0  0
 19 44  1  0  0  0  0
 20 21  1  0  0  0  0
 21 22  2  0  0  0  0
 23 24  1  6  0  0  0
 23 25  1  0  0  0  0
 24 45  1  0  0  0  0
 24 46  1  0  0  0  0
 25 26  1  0  0  0  0
 25 47  1  0  0  0  0
 26 27  1  0  0  0  0
 26 33  1  0  0  0  0
 26 48  1  0  0  0  0
 27 28  1  0  0  0  0
 27 49  1  0  0  0  0
 27 50  1  0  0  0  0
 28 29  1  0  0  0  0
 28 51  1  0  0  0  0
 28 52  1  0  0  0  0
 29 30  2  0  0  0  0
 29 31  2  0  0  0  0
 29 32  1  0  0  0  0
 32 33  1  0  0  0  0
 32 53  1  0  0  0  0
 32 54  1  0  0  0  0
 33 55  1  0  0  0  0
 33 56  1  0  0  0  0
M  END
