4umj_ligand
 OpenBabel08222323353D

 39 38  0  0  1  0  0  0  0  0999 V2000
   14.5150   21.5730   -6.1580 P   0  0  0  0  0  0  0  0  0  0  0  0
   15.6990   21.3010   -7.0620 O   0  0  0  0  0  1  0  0  0  0  0  0
   14.2420   20.3950   -5.2500 O   0  0  0  0  0  1  0  0  0  0  0  0
   14.7390   22.9400   -5.4990 O   0  0  0  0  0  0  0  0  0  0  0  0
   13.0240   21.6730   -7.2070 C   0  0  0  0  0  0  0  0  0  0  0  0
   12.9120   20.0360   -8.0610 P   0  0  0  0  0  0  0  0  0  0  0  0
   14.0680   19.8470   -8.9820 O   0  0  0  0  0  1  0  0  0  0  0  0
   11.7190   20.0870   -8.9490 O   0  0  0  0  0  1  0  0  0  0  0  0
   12.6400   18.9630   -7.0330 O   0  0  0  0  0  0  0  0  0  0  0  0
   11.9400   21.9080   -6.3700 O   0  0  0  0  0  0  0  0  0  0  0  0
   13.0560   22.7660   -8.2420 C   0  0  0  0  0  0  0  0  0  0  0  0
   13.6090   24.1340   -7.8440 C   0  0  0  0  0  0  0  0  0  0  0  0
   12.8740   24.8990   -6.8250 N   0  3  1  0  0  0  0  0  0  0  0  0
   13.5960   26.1940   -6.7410 C   0  0  0  0  0  0  0  0  0  0  0  0
   14.0580   26.7320   -8.1060 C   0  0  0  0  0  0  0  0  0  0  0  0
   14.8140   28.0310   -8.0620 C   0  0  0  0  0  0  0  0  0  0  0  0
   15.9580   27.8800   -9.0500 C   0  0  0  0  0  0  0  0  0  0  0  0
   16.5230   29.1350   -9.6070 C   0  0  0  0  0  0  0  0  0  0  0  0
   11.5070   25.0660   -7.3310 C   0  0  0  0  0  0  0  0  0  0  0  0
   11.1467   21.9651   -6.8896 H   0  0  0  0  0  0  0  0  0  0  0  0
   12.0215   22.9209   -8.5822 H   0  0  0  0  0  0  0  0  0  0  0  0
   13.6670   22.4008   -9.0806 H   0  0  0  0  0  0  0  0  0  0  0  0
   13.6463   24.7507   -8.7541 H   0  0  0  0  0  0  0  0  0  0  0  0
   14.6297   23.9780   -7.4647 H   0  0  0  0  0  0  0  0  0  0  0  0
   12.8664   24.4313   -5.9321 H   0  0  0  0  0  0  0  0  0  0  0  0
   14.4818   26.0574   -6.1033 H   0  0  0  0  0  0  0  0  0  0  0  0
   12.9258   26.9366   -6.2835 H   0  0  0  0  0  0  0  0  0  0  0  0
   13.1662   26.8789   -8.7330 H   0  0  0  0  0  0  0  0  0  0  0  0
   14.7096   25.9750   -8.5668 H   0  0  0  0  0  0  0  0  0  0  0  0
   15.2041   28.2127   -7.0497 H   0  0  0  0  0  0  0  0  0  0  0  0
   14.1602   28.8646   -8.3581 H   0  0  0  0  0  0  0  0  0  0  0  0
   15.5936   27.2747   -9.8931 H   0  0  0  0  0  0  0  0  0  0  0  0
   16.7722   27.3450   -8.5392 H   0  0  0  0  0  0  0  0  0  0  0  0
   17.3384   28.8922  -10.3042 H   0  0  0  0  0  0  0  0  0  0  0  0
   16.9139   29.7564   -8.7878 H   0  0  0  0  0  0  0  0  0  0  0  0
   15.7354   29.6861  -10.1417 H   0  0  0  0  0  0  0  0  0  0  0  0
   11.0107   24.0854   -7.3768 H   0  0  0  0  0  0  0  0  0  0  0  0
   11.5401   25.5075   -8.3379 H   0  0  0  0  0  0  0  0  0  0  0  0
   10.9453   25.7301   -6.6576 H   0  0  0  0  0  0  0  0  0  0  0  0
  1  2  1  0  0  0  0
  1  3  1  0  0  0  0
  1  4  2  0  0  0  0
  1  5  1  0  0  0  0
  5  6  1  0  0  0  0
  5 10  1  0  0  0  0
  5 11  1  0  0  0  0
  6  7  1  0  0  0  0
  6  8  1  0  0  0  0
  6  9  2  0  0  0  0
 10 20  1  0  0  0  0
 11 12  1  0  0  0  0
 11 21  1  0  0  0  0
 11 22  1  0  0  0  0
 12 13  1  0  0  0  0
 12 23  1  0  0  0  0
 12 24  1  0  0  0  0
 13 14  1  0  0  0  0
 13 19  1  0  0  0  0
 13 25  1  1  0  0  0
 14 15  1  0  0  0  0
 14 26  1  0  0  0  0
 14 27  1  0  0  0  0
 15 16  1  0  0  0  0
 15 28  1  0  0  0  0
 15 29  1  0  0  0  0
 16 17  1  0  0  0  0
 16 30  1  0  0  0  0
 16 31  1  0  0  0  0
 17 18  1  0  0  0  0
 17 32  1  0  0  0  0
 17 33  1  0  0  0  0
 18 34  1  0  0  0  0
 18 35  1  0  0  0  0
 18 36  1  0  0  0  0
 19 37  1  0  0  0  0
 19 38  1  0  0  0  0
 19 39  1  0  0  0  0
M  CHG  1  13   1
M  END
