4umn_ligand
 OpenBabel08222323353D

222227  0  0  1  0  0  0  0  0999 V2000
    5.5860   14.5960  138.6050 C   0  0  0  0  0  0  0  0  0  0  0  0
    4.4740   15.1090  138.5880 O   0  0  0  0  0  0  0  0  0  0  0  0
    5.9330   13.4950  139.5700 C   0  0  0  0  0  0  0  0  0  0  0  0
    6.5530   14.9830  137.7730 N   0  0  0  0  0  0  0  0  0  0  0  0
    6.3500   16.0410  136.7920 C   0  0  2  0  0  0  0  0  0  0  0  0
    5.4230   15.6390  135.6740 C   0  0  0  0  0  0  0  0  0  0  0  0
    5.6010   14.5570  135.1400 O   0  0  0  0  0  0  0  0  0  0  0  0
    7.7120   16.4220  136.2270 C   0  0  2  0  0  0  0  0  0  0  0  0
    8.5790   16.7970  137.2970 O   0  0  0  0  0  0  0  0  0  0  0  0
    7.6200   17.5700  135.2300 C   0  0  0  0  0  0  0  0  0  0  0  0
    4.5050   16.4470  135.3300 N   0  0  0  0  0  0  0  0  0  0  0  0
    3.5630   16.1260  134.2590 C   0  0  2  0  0  0  0  0  0  0  0  0
    4.2130   16.1490  132.8710 C   0  0  0  0  0  0  0  0  0  0  0  0
    5.2190   16.8390  132.6560 O   0  0  0  0  0  0  0  0  0  0  0  0
    2.4330   17.1640  134.3280 C   0  0  0  0  0  0  0  0  0  0  0  0
    2.8800   18.4790  134.0450 O   0  0  0  0  0  0  0  0  0  0  0  0
    3.6280   15.4010  131.9380 N   0  0  0  0  0  0  0  0  0  0  0  0
    4.0250   15.4880  130.5340 C   0  0  2  0  0  0  0  0  0  0  0  0
    3.8910   16.9270  130.0400 C   0  0  0  0  0  0  0  0  0  0  0  0
    4.8120   17.4190  129.3840 O   0  0  0  0  0  0  0  0  0  0  0  0
    3.1950   14.5680  129.6280 C   0  0  0  0  0  0  0  0  0  0  0  0
    3.3680   14.8660  128.1590 C   0  0  0  0  0  0  0  0  0  0  0  0
    4.5440   14.5310  127.5070 C   0  0  0  0  0  0  0  0  0  0  0  0
    2.3770   15.5230  127.4450 C   0  0  0  0  0  0  0  0  0  0  0  0
    4.7180   14.8220  126.1650 C   0  0  0  0  0  0  0  0  0  0  0  0
    2.5430   15.8180  126.1010 C   0  0  0  0  0  0  0  0  0  0  0  0
    3.7160   15.4700  125.4610 C   0  0  0  0  0  0  0  0  0  0  0  0
    4.3790   20.6530  129.7240 O   0  0  0  0  0  0  0  0  0  0  0  0
    3.7860   19.9190  130.5640 C   0  0  0  0  0  0  0  0  0  0  0  0
    2.5670   19.1480  130.0840 C   0  0  1  0  0  0  0  0  0  0  0  0
    1.3530   19.5790  130.9170 C   0  0  0  0  0  0  0  0  0  0  0  0
    2.4150   19.4590  128.5950 C   0  0  0  0  0  0  0  0  0  0  0  0
    2.8260   17.7260  130.2880 N   0  0  0  0  0  0  0  0  0  0  0  0
    1.1530   19.0400  127.8400 C   0  0  0  0  0  0  0  0  0  0  0  0
    1.1890   19.5860  126.3980 C   0  0  0  0  0  0  0  0  0  0  0  0
    2.0550   20.8480  126.3110 C   0  0  0  0  0  0  0  0  0  0  0  0
    1.8940   21.6860  125.0670 C   0  0  0  0  0  0  0  0  0  0  0  0
    2.2650   23.1280  125.4010 C   0  0  0  0  0  0  0  0  0  0  0  0
    3.7540   23.4310  125.3080 C   0  0  0  0  0  0  0  0  0  0  0  0
    4.4140   19.7930  131.7520 N   0  0  0  0  0  0  0  0  0  0  0  0
    5.6160   20.5430  132.2020 C   0  0  2  0  0  0  0  0  0  0  0  0
    6.8630   20.1630  131.4090 C   0  0  0  0  0  0  0  0  0  0  0  0
    7.6190   21.0410  131.0000 O   0  0  0  0  0  0  0  0  0  0  0  0
    5.8490   20.3510  133.7000 C   0  0  0  0  0  0  0  0  0  0  0  0
    7.0270   21.1540  134.2250 C   0  0  0  0  0  0  0  0  0  0  0  0
    7.0200   21.3370  135.7310 C   0  0  0  0  0  0  0  0  0  0  0  0
    6.1490   20.7710  136.4250 O   0  5  0  0  0  0  0  0  0  0  0  0
    7.9050   22.0600  136.2180 O   0  0  0  0  0  0  0  0  0  0  0  0
    7.0840   18.8680  131.1950 N   0  0  0  0  0  0  0  0  0  0  0  0
    8.2280   18.4220  130.4060 C   0  0  2  0  0  0  0  0  0  0  0  0
    8.2100   19.0450  129.0060 C   0  0  0  0  0  0  0  0  0  0  0  0
    9.2240   19.5670  128.5430 O   0  0  0  0  0  0  0  0  0  0  0  0
    8.2610   16.8990  130.2800 C   0  0  0  0  0  0  0  0  0  0  0  0
    8.7810   16.1680  131.4970 C   0  0  0  0  0  0  0  0  0  0  0  0
   10.0710   16.3940  131.9740 C   0  0  0  0  0  0  0  0  0  0  0  0
    7.9960   15.2210  132.1500 C   0  0  0  0  0  0  0  0  0  0  0  0
   10.5570   15.7100  133.0790 C   0  0  0  0  0  0  0  0  0  0  0  0
    8.4740   14.5300  133.2530 C   0  0  0  0  0  0  0  0  0  0  0  0
    9.7510   14.7770  133.7130 C   0  0  0  0  0  0  0  0  0  0  0  0
   10.2160   14.0980  134.8110 O   0  0  0  0  0  0  0  0  0  0  0  0
    7.0580   18.9900  128.3450 N   0  0  0  0  0  0  0  0  0  0  0  0
    6.9310   19.5530  127.0020 C   0  0  2  0  0  0  0  0  0  0  0  0
    7.0640   21.0720  127.0400 C   0  0  0  0  0  0  0  0  0  0  0  0
    7.6860   21.6600  126.1610 O   0  0  0  0  0  0  0  0  0  0  0  0
    5.6120   19.1520  126.3470 C   0  0  0  0  0  0  0  0  0  0  0  0
    5.6500   19.2730  124.8570 C   0  0  0  0  0  0  0  0  0  0  0  0
    5.2030   20.3220  124.1040 C   0  0  0  0  0  0  0  0  0  0  0  0
    6.1780   18.3140  123.9330 C   0  0  0  0  0  0  0  0  0  0  0  0
    5.4110   20.0710  122.7690 N   0  0  0  0  0  0  0  0  0  0  0  0
    6.0120   18.8480  122.6360 C   0  0  0  0  0  0  0  0  0  0  0  0
    6.7760   17.0580  124.0740 C   0  0  0  0  0  0  0  0  0  0  0  0
    6.4180   18.1670  121.4910 C   0  0  0  0  0  0  0  0  0  0  0  0
    7.1830   16.3820  122.9340 C   0  0  0  0  0  0  0  0  0  0  0  0
    6.9990   16.9370  121.6580 C   0  0  0  0  0  0  0  0  0  0  0  0
    6.4810   21.6890  128.0680 N   0  0  0  0  0  0  0  0  0  0  0  0
    6.6310   23.1200  128.3340 C   0  0  2  0  0  0  0  0  0  0  0  0
    8.1060   23.5200  128.4520 C   0  0  0  0  0  0  0  0  0  0  0  0
    8.5230   24.5480  127.9100 O   0  0  0  0  0  0  0  0  0  0  0  0
    5.8630   23.4750  129.6140 C   0  0  0  0  0  0  0  0  0  0  0  0
    5.9950   24.8950  130.1140 C   0  0  0  0  0  0  0  0  0  0  0  0
    7.0010   25.2490  131.0090 C   0  0  0  0  0  0  0  0  0  0  0  0
    5.0800   25.8760  129.7350 C   0  0  0  0  0  0  0  0  0  0  0  0
    7.1110   26.5430  131.4860 C   0  0  0  0  0  0  0  0  0  0  0  0
    5.1840   27.1720  130.2070 C   0  0  0  0  0  0  0  0  0  0  0  0
    6.1990   27.4970  131.0850 C   0  0  0  0  0  0  0  0  0  0  0  0
    6.3020   28.7780  131.5550 O   0  0  0  0  0  0  0  0  0  0  0  0
    8.8930   22.7070  129.1530 N   0  0  0  0  0  0  0  0  0  0  0  0
   10.3210   22.9740  129.3060 C   0  0  2  0  0  0  0  0  0  0  0  0
   11.0590   22.7430  127.9890 C   0  0  0  0  0  0  0  0  0  0  0  0
   12.0200   23.4480  127.6760 O   0  0  0  0  0  0  0  0  0  0  0  0
   10.9190   22.1300  130.4390 C   0  0  0  0  0  0  0  0  0  0  0  0
   10.4750   22.5530  131.8450 C   0  0  0  0  0  0  0  0  0  0  0  0
   10.8110   21.4830  132.8760 C   0  0  0  0  0  0  0  0  0  0  0  0
   11.0870   23.8930  132.2370 C   0  0  0  0  0  0  0  0  0  0  0  0
   10.5980   21.7670  127.2120 N   0  0  0  0  0  0  0  0  0  0  0  0
   11.0830   21.5790  125.8460 C   0  0  2  0  0  0  0  0  0  0  0  0
   10.7670   22.7990  124.9620 C   0  0  0  0  0  0  0  0  0  0  0  0
   11.6710   23.2780  124.2540 O   0  0  0  0  0  0  0  0  0  0  0  0
   10.4890   20.3090  125.2320 C   0  0  0  0  0  0  0  0  0  0  0  0
   10.7660   20.0670  123.7460 C   0  0  0  0  0  0  0  0  0  0  0  0
   12.1990   19.6110  123.5400 C   0  0  0  0  0  0  0  0  0  0  0  0
    9.7830   19.0540  123.1900 C   0  0  0  0  0  0  0  0  0  0  0  0
   10.2030   25.7700  124.4400 C   0  0  0  0  0  0  0  0  0  0  0  0
    9.6530   23.4330  124.8460 N   0  0  0  0  0  0  0  0  0  0  0  0
   10.5680   26.5300  123.5190 O   0  0  0  0  0  0  0  0  0  0  0  0
    9.2400   24.6450  124.1340 C   0  0  1  0  0  0  0  0  0  0  0  0
    7.8880   25.1540  124.6150 C   0  0  0  0  0  0  0  0  0  0  0  0
    5.4820   25.0470  124.2350 C   0  0  0  0  0  0  0  0  0  0  0  0
    4.1230   24.4600  124.5390 C   0  0  0  0  0  0  0  0  0  0  0  0
    6.7050   24.1920  124.5350 C   0  0  0  0  0  0  0  0  0  0  0  0
    9.2280   24.3600  122.6360 C   0  0  0  0  0  0  0  0  0  0  0  0
   10.6600   25.9530  125.7730 N   0  0  0  0  0  0  0  0  0  0  0  0
    6.9763   13.1843  139.4120 H   0  0  0  0  0  0  0  0  0  0  0  0
    5.2655   12.6368  139.4027 H   0  0  0  0  0  0  0  0  0  0  0  0
    5.8110   13.8589  140.6008 H   0  0  0  0  0  0  0  0  0  0  0  0
    7.4448   14.5335  137.8237 H   0  0  0  0  0  0  0  0  0  0  0  0
    5.9138   16.9125  137.3021 H   0  0  0  0  0  0  0  0  0  0  0  0
    8.1338   15.5459  135.7127 H   0  0  0  0  0  0  0  0  0  0  0  0
    8.6759   16.0658  137.8957 H   0  0  0  0  0  0  0  0  0  0  0  0
    8.6249   17.8080  134.8512 H   0  0  0  0  0  0  0  0  0  0  0  0
    7.1967   18.4549  135.7277 H   0  0  0  0  0  0  0  0  0  0  0  0
    6.9720   17.2761  134.3911 H   0  0  0  0  0  0  0  0  0  0  0  0
    4.4247   17.3242  135.8034 H   0  0  0  0  0  0  0  0  0  0  0  0
    3.1511   15.1211  134.4334 H   0  0  0  0  0  0  0  0  0  0  0  0
    2.0026   17.1489  135.3402 H   0  0  0  0  0  0  0  0  0  0  0  0
    1.6587   16.8905  133.5961 H   0  0  0  0  0  0  0  0  0  0  0  0
    3.5445   18.7291  134.6761 H   0  0  0  0  0  0  0  0  0  0  0  0
    2.9020   14.7665  132.2032 H   0  0  0  0  0  0  0  0  0  0  0  0
    5.0797   15.1850  130.4587 H   0  0  0  0  0  0  0  0  0  0  0  0
    2.1326   14.6889  129.8863 H   0  0  0  0  0  0  0  0  0  0  0  0
    3.5011   13.5276  129.8119 H   0  0  0  0  0  0  0  0  0  0  0  0
    5.3373   14.0351  128.0546 H   0  0  0  0  0  0  0  0  0  0  0  0
    1.4592   15.8100  127.9454 H   0  0  0  0  0  0  0  0  0  0  0  0
    5.6383   14.5429  125.6648 H   0  0  0  0  0  0  0  0  0  0  0  0
    1.7539   16.3207  125.5536 H   0  0  0  0  0  0  0  0  0  0  0  0
    3.8524   15.7030  124.4112 H   0  0  0  0  0  0  0  0  0  0  0  0
    0.4627   19.0280  130.5797 H   0  0  0  0  0  0  0  0  0  0  0  0
    1.1859   20.6588  130.7901 H   0  0  0  0  0  0  0  0  0  0  0  0
    1.5399   19.3592  131.9785 H   0  0  0  0  0  0  0  0  0  0  0  0
    3.2622   18.9778  128.0843 H   0  0  0  0  0  0  0  0  0  0  0  0
    2.4965   20.5510  128.4911 H   0  0  0  0  0  0  0  0  0  0  0  0
    2.0543   17.2391  130.6972 H   0  0  0  0  0  0  0  0  0  0  0  0
    0.2695   19.4409  128.3583 H   0  0  0  0  0  0  0  0  0  0  0  0
    1.0944   17.9419  127.8113 H   0  0  0  0  0  0  0  0  0  0  0  0
    0.1647   19.8298  126.0798 H   0  0  0  0  0  0  0  0  0  0  0  0
    1.6065   18.8165  125.7321 H   0  0  0  0  0  0  0  0  0  0  0  0
    3.1082   20.5363  126.3708 H   0  0  0  0  0  0  0  0  0  0  0  0
    1.8106   21.4822  127.1759 H   0  0  0  0  0  0  0  0  0  0  0  0
    0.8502   21.6420  124.7229 H   0  0  0  0  0  0  0  0  0  0  0  0
    2.5572   21.3064  124.2758 H   0  0  0  0  0  0  0  0  0  0  0  0
    1.9343   23.3393  126.4286 H   0  0  0  0  0  0  0  0  0  0  0  0
    1.7346   23.7908  124.7015 H   0  0  0  0  0  0  0  0  0  0  0  0
    4.4885   22.8337  125.8461 H   0  0  0  0  0  0  0  0  0  0  0  0
    4.0323   19.1282  132.3941 H   0  0  0  0  0  0  0  0  0  0  0  0
    5.4242   21.6117  132.0260 H   0  0  0  0  0  0  0  0  0  0  0  0
    6.0386   19.2845  133.8915 H   0  0  0  0  0  0  0  0  0  0  0  0
    4.9428   20.6649  134.2388 H   0  0  0  0  0  0  0  0  0  0  0  0
    7.0064   22.1482  133.7547 H   0  0  0  0  0  0  0  0  0  0  0  0
    7.9545   20.6341  133.9431 H   0  0  0  0  0  0  0  0  0  0  0  0
    6.4571   18.1909  131.5804 H   0  0  0  0  0  0  0  0  0  0  0  0
    9.1441   18.7476  130.9205 H   0  0  0  0  0  0  0  0  0  0  0  0
    8.9049   16.6411  129.4262 H   0  0  0  0  0  0  0  0  0  0  0  0
    7.2361   16.5505  130.0848 H   0  0  0  0  0  0  0  0  0  0  0  0
   10.7053   17.1164  131.4732 H   0  0  0  0  0  0  0  0  0  0  0  0
    6.9935   15.0205  131.7896 H   0  0  0  0  0  0  0  0  0  0  0  0
   11.5592   15.9036  133.4438 H   0  0  0  0  0  0  0  0  0  0  0  0
    7.8474   13.7993  133.7514 H   0  0  0  0  0  0  0  0  0  0  0  0
   10.2071   13.1651  134.6322 H   0  0  0  0  0  0  0  0  0  0  0  0
    6.2653   18.5564  128.7735 H   0  0  0  0  0  0  0  0  0  0  0  0
    7.7509   19.1521  126.3879 H   0  0  0  0  0  0  0  0  0  0  0  0
    4.8144   19.8037  126.7332 H   0  0  0  0  0  0  0  0  0  0  0  0
    5.3913   18.1070  126.6101 H   0  0  0  0  0  0  0  0  0  0  0  0
    4.7475   21.2266  124.5042 H   0  0  0  0  0  0  0  0  0  0  0  0
    5.1562   20.7004  121.9945 H   0  0  0  0  0  0  0  0  0  0  0  0
    6.9187   16.6212  125.0558 H   0  0  0  0  0  0  0  0  0  0  0  0
    6.2796   18.5940  120.5043 H   0  0  0  0  0  0  0  0  0  0  0  0
    7.6510   15.4089  123.0297 H   0  0  0  0  0  0  0  0  0  0  0  0
    7.3234   16.3808  120.7859 H   0  0  0  0  0  0  0  0  0  0  0  0
    5.9133   21.1472  128.6878 H   0  0  0  0  0  0  0  0  0  0  0  0
    6.1913   23.6786  127.4946 H   0  0  0  0  0  0  0  0  0  0  0  0
    6.2184   22.8065  130.4120 H   0  0  0  0  0  0  0  0  0  0  0  0
    4.7959   23.2861  129.4255 H   0  0  0  0  0  0  0  0  0  0  0  0
    7.7102   24.4979  131.3377 H   0  0  0  0  0  0  0  0  0  0  0  0
    4.2729   25.6187  129.0586 H   0  0  0  0  0  0  0  0  0  0  0  0
    7.9092   26.8056  132.1708 H   0  0  0  0  0  0  0  0  0  0  0  0
    4.4738   27.9271  129.8899 H   0  0  0  0  0  0  0  0  0  0  0  0
    7.0450   28.8393  132.1438 H   0  0  0  0  0  0  0  0  0  0  0  0
    8.4981   21.8958  129.5843 H   0  0  0  0  0  0  0  0  0  0  0  0
   10.4400   24.0333  129.5774 H   0  0  0  0  0  0  0  0  0  0  0  0
   12.0148   22.2092  130.3857 H   0  0  0  0  0  0  0  0  0  0  0  0
   10.6190   21.0832  130.2837 H   0  0  0  0  0  0  0  0  0  0  0  0
    9.3818   22.6738  131.8291 H   0  0  0  0  0  0  0  0  0  0  0  0
   10.4807   21.8160  133.8710 H   0  0  0  0  0  0  0  0  0  0  0  0
   11.8978   21.3139  132.8881 H   0  0  0  0  0  0  0  0  0  0  0  0
   10.2971   20.5466  132.6135 H   0  0  0  0  0  0  0  0  0  0  0  0
   10.8315   24.6484  131.4793 H   0  0  0  0  0  0  0  0  0  0  0  0
   12.1805   23.7923  132.3001 H   0  0  0  0  0  0  0  0  0  0  0  0
   10.6905   24.2053  133.2144 H   0  0  0  0  0  0  0  0  0  0  0  0
    9.9017   21.1458  127.5715 H   0  0  0  0  0  0  0  0  0  0  0  0
   12.1760   21.4621  125.8870 H   0  0  0  0  0  0  0  0  0  0  0  0
    9.3979   20.3541  125.3642 H   0  0  0  0  0  0  0  0  0  0  0  0
   10.8908   19.4502  125.7897 H   0  0  0  0  0  0  0  0  0  0  0  0
   10.6260   21.0157  123.2071 H   0  0  0  0  0  0  0  0  0  0  0  0
   12.3796   19.4423  122.4681 H   0  0  0  0  0  0  0  0  0  0  0  0
   12.3689   18.6750  124.0922 H   0  0  0  0  0  0  0  0  0  0  0  0
   12.8870   20.3853  123.9103 H   0  0  0  0  0  0  0  0  0  0  0  0
    8.7558   19.4117  123.3539 H   0  0  0  0  0  0  0  0  0  0  0  0
    9.9214   18.0899  123.7012 H   0  0  0  0  0  0  0  0  0  0  0  0
    9.9589   18.9259  122.1118 H   0  0  0  0  0  0  0  0  0  0  0  0
    8.9053   23.0043  125.3531 H   0  0  0  0  0  0  0  0  0  0  0  0
    7.6351   26.0385  124.0120 H   0  0  0  0  0  0  0  0  0  0  0  0
    8.0025   25.4489  125.6685 H   0  0  0  0  0  0  0  0  0  0  0  0
    5.5778   25.9739  124.8195 H   0  0  0  0  0  0  0  0  0  0  0  0
    5.5039   25.2864  123.1616 H   0  0  0  0  0  0  0  0  0  0  0  0
    3.2963   24.9661  124.0426 H   0  0  0  0  0  0  0  0  0  0  0  0
    6.5765   23.6652  125.4920 H   0  0  0  0  0  0  0  0  0  0  0  0
    6.8638   23.4583  123.7310 H   0  0  0  0  0  0  0  0  0  0  0  0
    8.9188   25.2653  122.0930 H   0  0  0  0  0  0  0  0  0  0  0  0
    8.5202   23.5453  122.4234 H   0  0  0  0  0  0  0  0  0  0  0  0
   10.2363   24.0640  122.3110 H   0  0  0  0  0  0  0  0  0  0  0  0
   10.3552   25.3327  126.4957 H   0  0  0  0  0  0  0  0  0  0  0  0
   11.2864   26.7021  125.9884 H   0  0  0  0  0  0  0  0  0  0  0  0
  1  2  2  0  0  0  0
  1  3  1  0  0  0  0
  3113  1  0  0  0  0
  3114  1  0  0  0  0
  3115  1  0  0  0  0
  4  1  1  0  0  0  0
  4116  1  0  0  0  0
  5  4  1  0  0  0  0
  5  8  1  0  0  0  0
  5117  1  1  0  0  0
  6  5  1  0  0  0  0
  6  7  2  0  0  0  0
  8  9  1  0  0  0  0
  8 10  1  0  0  0  0
  8118  1  6  0  0  0
  9119  1  0  0  0  0
 10120  1  0  0  0  0
 10121  1  0  0  0  0
 10122  1  0  0  0  0
 11  6  1  0  0  0  0
 11123  1  0  0  0  0
 12 11  1  0  0  0  0
 12 15  1  0  0  0  0
 12124  1  1  0  0  0
 13 12  1  0  0  0  0
 13 14  2  0  0  0  0
 15 16  1  0  0  0  0
 15125  1  0  0  0  0
 15126  1  0  0  0  0
 16127  1  0  0  0  0
 17 13  1  0  0  0  0
 17128  1  0  0  0  0
 18 17  1  0  0  0  0
 18 21  1  0  0  0  0
 18129  1  6  0  0  0
 19 18  1  0  0  0  0
 19 20  2  0  0  0  0
 21 22  1  0  0  0  0
 21130  1  0  0  0  0
 21131  1  0  0  0  0
 22 23  2  0  0  0  0
 22 24  1  0  0  0  0
 23 25  1  0  0  0  0
 23132  1  0  0  0  0
 24 26  2  0  0  0  0
 24133  1  0  0  0  0
 25 27  2  0  0  0  0
 25134  1  0  0  0  0
 26 27  1  0  0  0  0
 26135  1  0  0  0  0
 27136  1  0  0  0  0
 29 28  2  0  0  0  0
 29 30  1  0  0  0  0
 30 31  1  1  0  0  0
 30 32  1  0  0  0  0
 30 33  1  0  0  0  0
 31137  1  0  0  0  0
 31138  1  0  0  0  0
 31139  1  0  0  0  0
 32 34  1  0  0  0  0
 32140  1  0  0  0  0
 32141  1  0  0  0  0
 33 19  1  0  0  0  0
 33142  1  0  0  0  0
 34 35  1  0  0  0  0
 34143  1  0  0  0  0
 34144  1  0  0  0  0
 35 36  1  0  0  0  0
 35145  1  0  0  0  0
 35146  1  0  0  0  0
 36 37  1  0  0  0  0
 36147  1  0  0  0  0
 36148  1  0  0  0  0
 37 38  1  0  0  0  0
 37149  1  0  0  0  0
 37150  1  0  0  0  0
 38 39  1  0  0  0  0
 38151  1  0  0  0  0
 38152  1  0  0  0  0
 39109  2  0  0  0  0
 39153  1  0  0  0  0
 40 29  1  0  0  0  0
 40154  1  0  0  0  0
 41 40  1  0  0  0  0
 41 44  1  0  0  0  0
 41155  1  6  0  0  0
 42 41  1  0  0  0  0
 42 43  2  0  0  0  0
 44 45  1  0  0  0  0
 44156  1  0  0  0  0
 44157  1  0  0  0  0
 45 46  1  0  0  0  0
 45158  1  0  0  0  0
 45159  1  0  0  0  0
 46 47  1  0  0  0  0
 46 48  2  0  0  0  0
 49 42  1  0  0  0  0
 49160  1  0  0  0  0
 50 49  1  0  0  0  0
 50 53  1  0  0  0  0
 50161  1  1  0  0  0
 51 50  1  0  0  0  0
 51 52  2  0  0  0  0
 53 54  1  0  0  0  0
 53162  1  0  0  0  0
 53163  1  0  0  0  0
 54 55  2  0  0  0  0
 54 56  1  0  0  0  0
 55 57  1  0  0  0  0
 55164  1  0  0  0  0
 56 58  2  0  0  0  0
 56165  1  0  0  0  0
 57 59  2  0  0  0  0
 57166  1  0  0  0  0
 58 59  1  0  0  0  0
 58167  1  0  0  0  0
 59 60  1  0  0  0  0
 60168  1  0  0  0  0
 61 51  1  0  0  0  0
 61169  1  0  0  0  0
 62 61  1  0  0  0  0
 62 65  1  0  0  0  0
 62170  1  6  0  0  0
 63 62  1  0  0  0  0
 63 64  2  0  0  0  0
 65 66  1  0  0  0  0
 65171  1  0  0  0  0
 65172  1  0  0  0  0
 66 67  2  0  0  0  0
 66 68  1  0  0  0  0
 67 69  1  0  0  0  0
 67173  1  0  0  0  0
 68 70  2  0  0  0  0
 68 71  1  0  0  0  0
 69174  1  0  0  0  0
 70 69  1  0  0  0  0
 70 72  1  0  0  0  0
 71 73  2  0  0  0  0
 71175  1  0  0  0  0
 72 74  2  0  0  0  0
 72176  1  0  0  0  0
 73 74  1  0  0  0  0
 73177  1  0  0  0  0
 74178  1  0  0  0  0
 75 63  1  0  0  0  0
 75179  1  0  0  0  0
 76 75  1  0  0  0  0
 76 79  1  0  0  0  0
 76180  1  6  0  0  0
 77 76  1  0  0  0  0
 77 78  2  0  0  0  0
 79 80  1  0  0  0  0
 79181  1  0  0  0  0
 79182  1  0  0  0  0
 80 81  2  0  0  0  0
 80 82  1  0  0  0  0
 81 83  1  0  0  0  0
 81183  1  0  0  0  0
 82 84  2  0  0  0  0
 82184  1  0  0  0  0
 83 85  2  0  0  0  0
 83185  1  0  0  0  0
 84 85  1  0  0  0  0
 84186  1  0  0  0  0
 85 86  1  0  0  0  0
 86187  1  0  0  0  0
 87 77  1  0  0  0  0
 87188  1  0  0  0  0
 88 87  1  0  0  0  0
 88 91  1  0  0  0  0
 88189  1  1  0  0  0
 89 88  1  0  0  0  0
 89 90  2  0  0  0  0
 91 92  1  0  0  0  0
 91190  1  0  0  0  0
 91191  1  0  0  0  0
 92 93  1  0  0  0  0
 92 94  1  0  0  0  0
 92192  1  0  0  0  0
 93193  1  0  0  0  0
 93194  1  0  0  0  0
 93195  1  0  0  0  0
 94196  1  0  0  0  0
 94197  1  0  0  0  0
 94198  1  0  0  0  0
 95 89  1  0  0  0  0
 95199  1  0  0  0  0
 96 95  1  0  0  0  0
 96 99  1  0  0  0  0
 96200  1  1  0  0  0
 97 96  1  0  0  0  0
 97 98  2  0  0  0  0
 99100  1  0  0  0  0
 99201  1  0  0  0  0
 99202  1  0  0  0  0
100101  1  0  0  0  0
100102  1  0  0  0  0
100203  1  0  0  0  0
101204  1  0  0  0  0
101205  1  0  0  0  0
101206  1  0  0  0  0
102207  1  0  0  0  0
102208  1  0  0  0  0
102209  1  0  0  0  0
103105  2  0  0  0  0
103112  1  0  0  0  0
104 97  1  0  0  0  0
104106  1  0  0  0  0
104210  1  0  0  0  0
106103  1  1  0  0  0
106107  1  0  0  0  0
106111  1  0  0  0  0
107110  1  0  0  0  0
107211  1  0  0  0  0
107212  1  0  0  0  0
108110  1  0  0  0  0
108213  1  0  0  0  0
108214  1  0  0  0  0
109108  1  0  0  0  0
109215  1  0  0  0  0
110216  1  0  0  0  0
110217  1  0  0  0  0
111218  1  0  0  0  0
111219  1  0  0  0  0
111220  1  0  0  0  0
112221  1  0  0  0  0
112222  1  0  0  0  0
M  CHG  1  47  -1
M  END
