4umu_ligand
 OpenBabel08222323353D

 46 48  0  0  0  0  0  0  0  0999 V2000
   37.5720   19.9260   24.7360 C   0  0  0  0  0  0  0  0  0  0  0  0
   36.6530   20.0680   23.5420 C   0  0  0  0  0  0  0  0  0  0  0  0
   36.4210   21.4570   23.3060 O   0  0  0  0  0  0  0  0  0  0  0  0
   35.5610   21.8360   22.2990 C   0  0  0  0  0  0  0  0  0  0  0  0
   34.9130   20.9800   21.4130 C   0  0  0  0  0  0  0  0  0  0  0  0
   34.0540   21.4750   20.4230 C   0  0  0  0  0  0  0  0  0  0  0  0
   33.4430   20.5630   19.5760 O   0  0  0  0  0  0  0  0  0  0  0  0
   32.4450   20.9670   18.5850 C   0  0  0  0  0  0  0  0  0  0  0  0
   31.9380   19.7840   17.9280 C   0  0  0  0  0  0  0  0  0  0  0  0
   31.5140   18.8110   17.3890 C   0  0  0  0  0  0  0  0  0  0  0  0
   30.9860   17.6030   16.7190 C   0  0  0  0  0  0  0  0  0  0  0  0
   29.6090   17.4120   16.6450 C   0  0  0  0  0  0  0  0  0  0  0  0
   29.0900   16.2970   16.0240 C   0  0  0  0  0  0  0  0  0  0  0  0
   29.9530   15.3400   15.4530 C   0  0  0  0  0  0  0  0  0  0  0  0
   29.4900   14.1780   14.8070 C   0  0  0  0  0  0  0  0  0  0  0  0
   30.4020   13.2920   14.2750 C   0  0  0  0  0  0  0  0  0  0  0  0
   31.7260   13.4730   14.3380 N   0  0  0  0  0  0  0  0  0  0  0  0
   32.1930   14.5670   14.9490 C   0  0  0  0  0  0  0  0  0  0  0  0
   31.3530   15.5390   15.5260 C   0  0  0  0  0  0  0  0  0  0  0  0
   31.8490   16.6750   16.1580 C   0  0  0  0  0  0  0  0  0  0  0  0
   33.8540   22.8420   20.3330 C   0  0  0  0  0  0  0  0  0  0  0  0
   34.4940   23.7040   21.2110 C   0  0  0  0  0  0  0  0  0  0  0  0
   35.3510   23.2200   22.2000 C   0  0  0  0  0  0  0  0  0  0  0  0
   36.0330   24.1880   23.1420 C   0  0  0  0  0  0  0  0  0  0  0  0
   35.4610   24.1450   24.5130 N   0  3  0  0  0  0  0  0  0  0  0  0
   37.7596   18.8595   24.9295 H   0  0  0  0  0  0  0  0  0  0  0  0
   37.0993   20.3812   25.6188 H   0  0  0  0  0  0  0  0  0  0  0  0
   38.5252   20.4340   24.5276 H   0  0  0  0  0  0  0  0  0  0  0  0
   35.6978   19.5629   23.7479 H   0  0  0  0  0  0  0  0  0  0  0  0
   37.1237   19.6157   22.6567 H   0  0  0  0  0  0  0  0  0  0  0  0
   35.0759   19.9111   21.4904 H   0  0  0  0  0  0  0  0  0  0  0  0
   32.9093   21.6324   17.8423 H   0  0  0  0  0  0  0  0  0  0  0  0
   31.6196   21.4949   19.0850 H   0  0  0  0  0  0  0  0  0  0  0  0
   28.9400   18.1461   17.0793 H   0  0  0  0  0  0  0  0  0  0  0  0
   28.0164   16.1555   15.9745 H   0  0  0  0  0  0  0  0  0  0  0  0
   28.4267   13.9820   14.7288 H   0  0  0  0  0  0  0  0  0  0  0  0
   30.0273   12.4032   13.7803 H   0  0  0  0  0  0  0  0  0  0  0  0
   33.2659   14.7121   15.0025 H   0  0  0  0  0  0  0  0  0  0  0  0
   32.9197   16.8356   16.2120 H   0  0  0  0  0  0  0  0  0  0  0  0
   33.1933   23.2409   19.5718 H   0  0  0  0  0  0  0  0  0  0  0  0
   34.3256   24.7716   21.1275 H   0  0  0  0  0  0  0  0  0  0  0  0
   35.9193   25.2071   22.7440 H   0  0  0  0  0  0  0  0  0  0  0  0
   37.1016   23.9330   23.1973 H   0  0  0  0  0  0  0  0  0  0  0  0
   35.9466   24.8046   25.1005 H   0  0  0  0  0  0  0  0  0  0  0  0
   35.5660   23.2169   24.8919 H   0  0  0  0  0  0  0  0  0  0  0  0
   34.4825   24.3844   24.4765 H   0  0  0  0  0  0  0  0  0  0  0  0
  1  2  1  0  0  0  0
  1 26  1  0  0  0  0
  1 27  1  0  0  0  0
  1 28  1  0  0  0  0
  2  3  1  0  0  0  0
  2 29  1  0  0  0  0
  2 30  1  0  0  0  0
  3  4  1  0  0  0  0
  4  5  2  0  0  0  0
  4 23  1  0  0  0  0
  5  6  1  0  0  0  0
  5 31  1  0  0  0  0
  6  7  1  0  0  0  0
  6 21  2  0  0  0  0
  7  8  1  0  0  0  0
  8  9  1  0  0  0  0
  8 32  1  0  0  0  0
  8 33  1  0  0  0  0
  9 10  3  0  0  0  0
 10 11  1  0  0  0  0
 11 12  2  0  0  0  0
 11 20  1  0  0  0  0
 12 13  1  0  0  0  0
 12 34  1  0  0  0  0
 13 14  2  0  0  0  0
 13 35  1  0  0  0  0
 14 15  1  0  0  0  0
 14 19  1  0  0  0  0
 15 16  2  0  0  0  0
 15 36  1  0  0  0  0
 16 17  1  0  0  0  0
 16 37  1  0  0  0  0
 17 18  2  0  0  0  0
 18 19  1  0  0  0  0
 18 38  1  0  0  0  0
 19 20  2  0  0  0  0
 20 39  1  0  0  0  0
 21 22  1  0  0  0  0
 21 40  1  0  0  0  0
 22 23  2  0  0  0  0
 22 41  1  0  0  0  0
 23 24  1  0  0  0  0
 24 25  1  0  0  0  0
 24 42  1  0  0  0  0
 24 43  1  0  0  0  0
 25 44  1  0  0  0  0
 25 45  1  0  0  0  0
 25 46  1  0  0  0  0
M  CHG  1  25   1
M  END
