4url_ligand
 OpenBabel08222323353D

124129  0  0  1  0  0  0  0  0999 V2000
   24.5240  -17.9320    1.7460 C   0  0  2  0  0  0  0  0  0  0  0  0
   23.1520  -18.5530    2.0230 C   0  0  2  0  0  0  0  0  0  0  0  0
   23.1580  -19.6300    3.0870 C   0  0  0  0  0  0  0  0  0  0  0  0
   25.3340  -18.7200    0.7150 C   0  0  2  0  0  0  0  0  0  0  0  0
   16.1380   -9.8250   -5.4990 Cl  0  0  0  0  0  0  0  0  0  0  0  0
   15.3650   -8.4090   -6.1030 C   0  0  0  0  0  0  0  0  0  0  0  0
   14.7400   -7.4120   -5.2620 C   0  0  0  0  0  0  0  0  0  0  0  0
   14.7080   -7.4960   -3.5390 Cl  0  0  0  0  0  0  0  0  0  0  0  0
   14.2360   -6.4480   -6.1350 C   0  0  0  0  0  0  0  0  0  0  0  0
   13.5530   -5.1500   -5.8380 C   0  0  0  0  0  0  0  0  0  0  0  0
   14.5160   -6.8320   -7.4270 N   0  0  0  0  0  0  0  0  0  0  0  0
   15.2210   -8.0110   -7.4270 C   0  0  0  0  0  0  0  0  0  0  0  0
   15.7040   -8.6550   -8.6660 C   0  0  0  0  0  0  0  0  0  0  0  0
   15.4300   -8.1790   -9.7610 O   0  0  0  0  0  0  0  0  0  0  0  0
   16.4330   -9.7690   -8.4890 N   0  0  0  0  0  0  0  0  0  0  0  0
   17.3640  -10.3830   -9.4850 C   0  0  1  0  0  0  0  0  0  0  0  0
   18.8250   -9.8600   -9.2550 C   0  0  0  0  0  0  0  0  0  0  0  0
   17.1930  -11.9900   -9.4940 C   0  0  1  0  0  0  0  0  0  0  0  0
   17.8180  -12.7150   -8.2780 C   0  0  0  0  0  0  0  0  0  0  0  0
   15.7800  -12.2030   -9.3860 O   0  0  0  0  0  0  0  0  0  0  0  0
   17.8210  -12.6330  -10.8380 C   0  0  2  0  0  0  0  0  0  0  0  0
   16.9710  -12.2000  -11.8940 O   0  0  0  0  0  0  0  0  0  0  0  0
   17.9150  -14.1540  -10.8490 C   0  0  1  0  0  0  0  0  0  0  0  0
   18.7980  -14.6710  -11.9590 C   0  0  0  0  0  0  0  0  0  0  0  0
   18.5190  -14.6250   -9.6270 O   0  0  0  0  0  0  0  0  0  0  0  0
   17.8860  -14.2220   -8.4200 C   0  0  1  0  0  0  0  0  0  0  0  0
   18.5550  -14.7710   -7.3000 O   0  0  0  0  0  0  0  0  0  0  0  0
   18.4410  -16.2020   -7.1000 C   0  0  2  0  0  0  0  0  0  0  0  0
   17.0670  -16.4420   -6.4890 C   0  0  0  0  0  0  0  0  0  0  0  0
   16.9310  -17.8670   -5.9490 C   0  0  0  0  0  0  0  0  0  0  0  0
   18.0590  -18.1860   -5.0090 C   0  0  0  0  0  0  0  0  0  0  0  0
   17.8650  -18.4310   -3.7240 C   0  0  0  0  0  0  0  0  0  0  0  0
   19.4090  -18.1070   -5.7220 C   0  0  1  0  0  0  0  0  0  0  0  0
   19.6290  -16.6370   -6.1880 C   0  0  1  0  0  0  0  0  0  0  0  0
   21.0030  -16.4300   -6.7880 C   0  0  0  0  0  0  0  0  0  0  0  0
   22.0320  -17.2670   -6.6680 C   0  0  0  0  0  0  0  0  0  0  0  0
   21.9750  -18.5830   -5.9410 C   0  0  2  0  0  0  0  0  0  0  0  0
   22.0980  -19.7370   -6.9420 C   0  0  0  0  0  0  0  0  0  0  0  0
   20.7060  -18.6180   -5.0480 C   0  0  2  0  0  0  0  0  0  0  0  0
   20.5280  -20.0070   -4.3780 C   0  0  0  0  0  0  0  0  0  0  0  0
   19.7300  -20.9270   -4.9560 O   0  0  0  0  0  0  0  0  0  0  0  0
   21.1090  -20.3650   -3.1800 C   0  0  0  0  0  0  0  0  0  0  0  0
   21.9430  -19.5100   -2.3250 C   0  0  0  0  0  0  0  0  0  0  0  0
   22.2830  -18.3380   -2.4840 O   0  0  0  0  0  0  0  0  0  0  0  0
   20.9720  -21.6660   -2.5360 C   0  0  0  0  0  0  0  0  0  0  0  0
   20.4450  -22.6770   -2.9650 O   0  0  0  0  0  0  0  0  0  0  0  0
   21.6990  -21.6140   -1.1760 C   0  0  2  0  0  0  0  0  0  0  0  0
   20.8010  -21.8660    0.0600 C   0  0  0  0  0  0  0  0  0  0  0  0
   19.3490  -21.4400   -0.1660 C   0  0  0  0  0  0  0  0  0  0  0  0
   20.8830  -23.3130    0.5130 C   0  0  0  0  0  0  0  0  0  0  0  0
   22.3140  -20.2870   -1.1800 N   0  0  0  0  0  0  0  0  0  0  0  0
   23.2900  -19.8820   -0.0970 C   0  0  1  0  0  0  0  0  0  0  0  0
   24.5490  -19.1390   -0.5210 C   0  0  2  0  0  0  0  0  0  0  0  0
   25.3030  -20.0600   -1.3060 O   0  0  0  0  0  0  0  0  0  0  0  0
   26.0890  -19.4710   -2.3420 C   0  0  0  0  0  0  0  0  0  0  0  0
   22.5460  -19.0920    0.8290 O   0  0  0  0  0  0  0  0  0  0  0  0
   25.2780  -17.8570    2.9770 O   0  0  0  0  0  0  0  0  0  0  0  0
   26.1670  -16.8300    3.3010 C   0  0  0  0  0  0  0  0  0  0  0  0
   26.4880  -16.6530    4.4570 O   0  0  0  0  0  0  0  0  0  0  0  0
   26.5920  -16.1170    2.2590 N   0  0  0  0  0  0  0  0  0  0  0  0
   25.9780  -19.8650    1.3180 O   0  0  0  0  0  0  0  0  0  0  0  0
   27.3190  -19.9970    1.1620 C   0  0  0  0  0  0  0  0  0  0  0  0
   27.9950  -19.2230    0.5360 O   0  0  0  0  0  0  0  0  0  0  0  0
   27.8150  -21.2170    1.8580 C   0  0  0  0  0  0  0  0  0  0  0  0
   24.3687  -16.9141    1.3591 H   0  0  0  0  0  0  0  0  0  0  0  0
   22.5075  -17.7390    2.3864 H   0  0  0  0  0  0  0  0  0  0  0  0
   22.1377  -20.0188    3.2209 H   0  0  0  0  0  0  0  0  0  0  0  0
   23.5162  -19.2055    4.0365 H   0  0  0  0  0  0  0  0  0  0  0  0
   23.8244  -20.4483    2.7767 H   0  0  0  0  0  0  0  0  0  0  0  0
   26.1304  -18.0462    0.3660 H   0  0  0  0  0  0  0  0  0  0  0  0
   13.2923   -4.6486   -6.7817 H   0  0  0  0  0  0  0  0  0  0  0  0
   14.2274   -4.5058   -5.2547 H   0  0  0  0  0  0  0  0  0  0  0  0
   12.6373   -5.3415   -5.2594 H   0  0  0  0  0  0  0  0  0  0  0  0
   14.2374   -6.3111   -8.2708 H   0  0  0  0  0  0  0  0  0  0  0  0
   16.3447  -10.2320   -7.6070 H   0  0  0  0  0  0  0  0  0  0  0  0
   17.0605  -10.0318  -10.4822 H   0  0  0  0  0  0  0  0  0  0  0  0
   19.4991  -10.3188   -9.9933 H   0  0  0  0  0  0  0  0  0  0  0  0
   19.1551  -10.1283   -8.2406 H   0  0  0  0  0  0  0  0  0  0  0  0
   18.8453   -8.7662   -9.3699 H   0  0  0  0  0  0  0  0  0  0  0  0
   17.2150  -12.4794   -7.3887 H   0  0  0  0  0  0  0  0  0  0  0  0
   18.8409  -12.3353   -8.1386 H   0  0  0  0  0  0  0  0  0  0  0  0
   15.3402  -11.7768  -10.1122 H   0  0  0  0  0  0  0  0  0  0  0  0
   18.8342  -12.2300  -10.9830 H   0  0  0  0  0  0  0  0  0  0  0  0
   16.0880  -12.5133  -11.7370 H   0  0  0  0  0  0  0  0  0  0  0  0
   16.9025  -14.5702  -10.9565 H   0  0  0  0  0  0  0  0  0  0  0  0
   18.8301  -15.7699  -11.9203 H   0  0  0  0  0  0  0  0  0  0  0  0
   19.8148  -14.2700  -11.8356 H   0  0  0  0  0  0  0  0  0  0  0  0
   18.3925  -14.3500  -12.9298 H   0  0  0  0  0  0  0  0  0  0  0  0
   16.8567  -14.6096   -8.4341 H   0  0  0  0  0  0  0  0  0  0  0  0
   18.5098  -16.7352   -8.0597 H   0  0  0  0  0  0  0  0  0  0  0  0
   16.2999  -16.2780   -7.2602 H   0  0  0  0  0  0  0  0  0  0  0  0
   16.9146  -15.7315   -5.6632 H   0  0  0  0  0  0  0  0  0  0  0  0
   16.9499  -18.5757   -6.7900 H   0  0  0  0  0  0  0  0  0  0  0  0
   15.9755  -17.9605   -5.4120 H   0  0  0  0  0  0  0  0  0  0  0  0
   18.7125  -18.6580   -3.0790 H   0  0  0  0  0  0  0  0  0  0  0  0
   16.8577  -18.4058   -3.3109 H   0  0  0  0  0  0  0  0  0  0  0  0
   19.2936  -18.7275   -6.6229 H   0  0  0  0  0  0  0  0  0  0  0  0
   19.5880  -16.0011   -5.2914 H   0  0  0  0  0  0  0  0  0  0  0  0
   21.1636  -15.5211   -7.3659 H   0  0  0  0  0  0  0  0  0  0  0  0
   22.9772  -16.9799   -7.1264 H   0  0  0  0  0  0  0  0  0  0  0  0
   22.8452  -18.6436   -5.2709 H   0  0  0  0  0  0  0  0  0  0  0  0
   23.0249  -19.6212   -7.5229 H   0  0  0  0  0  0  0  0  0  0  0  0
   21.2344  -19.7251   -7.6232 H   0  0  0  0  0  0  0  0  0  0  0  0
   22.1231  -20.6929   -6.3983 H   0  0  0  0  0  0  0  0  0  0  0  0
   20.9034  -17.9102   -4.2294 H   0  0  0  0  0  0  0  0  0  0  0  0
   19.7260  -21.7172   -4.4287 H   0  0  0  0  0  0  0  0  0  0  0  0
   22.4873  -22.3811   -1.1628 H   0  0  0  0  0  0  0  0  0  0  0  0
   21.1958  -21.2440    0.8769 H   0  0  0  0  0  0  0  0  0  0  0  0
   18.7620  -21.6422    0.7420 H   0  0  0  0  0  0  0  0  0  0  0  0
   18.9274  -22.0071   -1.0090 H   0  0  0  0  0  0  0  0  0  0  0  0
   19.3136  -20.3644   -0.3935 H   0  0  0  0  0  0  0  0  0  0  0  0
   21.9364  -23.5898    0.6670 H   0  0  0  0  0  0  0  0  0  0  0  0
   20.4416  -23.9637   -0.2563 H   0  0  0  0  0  0  0  0  0  0  0  0
   20.3305  -23.4338    1.4565 H   0  0  0  0  0  0  0  0  0  0  0  0
   23.6224  -20.8022    0.4057 H   0  0  0  0  0  0  0  0  0  0  0  0
   24.2919  -18.2499   -1.1155 H   0  0  0  0  0  0  0  0  0  0  0  0
   26.6290  -20.2599   -2.8860 H   0  0  0  0  0  0  0  0  0  0  0  0
   26.8120  -18.7697   -1.9000 H   0  0  0  0  0  0  0  0  0  0  0  0
   25.4316  -18.9296   -3.0383 H   0  0  0  0  0  0  0  0  0  0  0  0
   27.2315  -15.3608    2.3980 H   0  0  0  0  0  0  0  0  0  0  0  0
   26.2716  -16.3380    1.3379 H   0  0  0  0  0  0  0  0  0  0  0  0
   28.9026  -21.3025    1.7176 H   0  0  0  0  0  0  0  0  0  0  0  0
   27.3202  -22.1053    1.4384 H   0  0  0  0  0  0  0  0  0  0  0  0
   27.5886  -21.1441    2.9320 H   0  0  0  0  0  0  0  0  0  0  0  0
  1  2  1  0  0  0  0
  1 57  1  0  0  0  0
  1 65  1  6  0  0  0
  2  3  1  0  0  0  0
  2 56  1  0  0  0  0
  2 66  1  1  0  0  0
  3 67  1  0  0  0  0
  3 68  1  0  0  0  0
  3 69  1  0  0  0  0
  4  1  1  0  0  0  0
  4 61  1  0  0  0  0
  4 70  1  6  0  0  0
  6  5  1  0  0  0  0
  6  7  1  0  0  0  0
  7  8  1  0  0  0  0
  9  7  2  0  0  0  0
  9 10  1  0  0  0  0
 10 71  1  0  0  0  0
 10 72  1  0  0  0  0
 10 73  1  0  0  0  0
 11  9  1  0  0  0  0
 11 74  1  0  0  0  0
 12  6  2  0  0  0  0
 12 11  1  0  0  0  0
 13 12  1  0  0  0  0
 13 14  2  0  0  0  0
 15 13  1  0  0  0  0
 15 75  1  0  0  0  0
 16 15  1  0  0  0  0
 16 17  1  0  0  0  0
 16 76  1  6  0  0  0
 17 77  1  0  0  0  0
 17 78  1  0  0  0  0
 17 79  1  0  0  0  0
 18 16  1  0  0  0  0
 18 20  1  1  0  0  0
 18 21  1  0  0  0  0
 19 18  1  0  0  0  0
 19 80  1  0  0  0  0
 19 81  1  0  0  0  0
 20 82  1  0  0  0  0
 21 22  1  0  0  0  0
 21 83  1  6  0  0  0
 22 84  1  0  0  0  0
 23 21  1  0  0  0  0
 23 24  1  0  0  0  0
 23 85  1  6  0  0  0
 24 86  1  0  0  0  0
 24 87  1  0  0  0  0
 24 88  1  0  0  0  0
 25 23  1  0  0  0  0
 26 19  1  0  0  0  0
 26 25  1  0  0  0  0
 26 89  1  6  0  0  0
 27 26  1  0  0  0  0
 28 27  1  0  0  0  0
 28 29  1  0  0  0  0
 28 90  1  6  0  0  0
 29 91  1  0  0  0  0
 29 92  1  0  0  0  0
 30 29  1  0  0  0  0
 30 93  1  0  0  0  0
 30 94  1  0  0  0  0
 31 30  1  0  0  0  0
 31 32  2  0  0  0  0
 32 95  1  0  0  0  0
 32 96  1  0  0  0  0
 33 31  1  0  0  0  0
 33 34  1  0  0  0  0
 33 97  1  6  0  0  0
 34 28  1  0  0  0  0
 34 35  1  0  0  0  0
 34 98  1  1  0  0  0
 35 99  1  0  0  0  0
 36 35  2  0  0  0  0
 36100  1  0  0  0  0
 37 36  1  0  0  0  0
 37 38  1  0  0  0  0
 37101  1  1  0  0  0
 38102  1  0  0  0  0
 38103  1  0  0  0  0
 38104  1  0  0  0  0
 39 33  1  0  0  0  0
 39 37  1  0  0  0  0
 39105  1  1  0  0  0
 40 39  1  0  0  0  0
 40 41  1  0  0  0  0
 41106  1  0  0  0  0
 42 40  2  0  0  0  0
 43 42  1  0  0  0  0
 43 44  2  0  0  0  0
 45 42  1  0  0  0  0
 45 46  2  0  0  0  0
 47 45  1  0  0  0  0
 47 48  1  0  0  0  0
 47107  1  6  0  0  0
 48 49  1  0  0  0  0
 48 50  1  0  0  0  0
 48108  1  0  0  0  0
 49109  1  0  0  0  0
 49110  1  0  0  0  0
 49111  1  0  0  0  0
 50112  1  0  0  0  0
 50113  1  0  0  0  0
 50114  1  0  0  0  0
 51 43  1  0  0  0  0
 51 47  1  0  0  0  0
 52 51  1  0  0  0  0
 52 53  1  0  0  0  0
 52 56  1  0  0  0  0
 52115  1  1  0  0  0
 53  4  1  0  0  0  0
 53 54  1  0  0  0  0
 53116  1  6  0  0  0
 54 55  1  0  0  0  0
 55117  1  0  0  0  0
 55118  1  0  0  0  0
 55119  1  0  0  0  0
 57 58  1  0  0  0  0
 58 59  2  0  0  0  0
 58 60  1  0  0  0  0
 60120  1  0  0  0  0
 60121  1  0  0  0  0
 61 62  1  0  0  0  0
 62 63  2  0  0  0  0
 62 64  1  0  0  0  0
 64122  1  0  0  0  0
 64123  1  0  0  0  0
 64124  1  0  0  0  0
M  END
