4urm_ligand
 OpenBabel08222323353D

124129  0  0  1  0  0  0  0  0999 V2000
   38.0370   -3.1510   21.4030 C   0  0  2  0  0  0  0  0  0  0  0  0
   37.6370   -1.6960   21.1580 C   0  0  2  0  0  0  0  0  0  0  0  0
   37.1570   -1.4100   19.7510 C   0  0  0  0  0  0  0  0  0  0  0  0
   39.4470   -3.4410   20.8990 C   0  0  2  0  0  0  0  0  0  0  0  0
   38.0940    1.2280   34.1380 Cl  0  0  0  0  0  0  0  0  0  0  0  0
   37.9040    1.5720   35.8150 C   0  0  0  0  0  0  0  0  0  0  0  0
   36.6500    1.8840   36.4010 C   0  0  0  0  0  0  0  0  0  0  0  0
   35.2070    2.0290   35.4740 Cl  0  0  0  0  0  0  0  0  0  0  0  0
   36.8980    2.0430   37.7730 C   0  0  0  0  0  0  0  0  0  0  0  0
   35.9670    2.2790   38.9180 C   0  0  0  0  0  0  0  0  0  0  0  0
   38.2320    1.8730   37.9860 N   0  0  0  0  0  0  0  0  0  0  0  0
   38.8660    1.5720   36.8100 C   0  0  0  0  0  0  0  0  0  0  0  0
   40.3250    1.3480   36.8210 C   0  0  0  0  0  0  0  0  0  0  0  0
   40.9610    1.5220   37.8550 O   0  0  0  0  0  0  0  0  0  0  0  0
   40.8930    0.9980   35.6590 N   0  0  0  0  0  0  0  0  0  0  0  0
   42.2540    0.3620   35.4990 C   0  0  1  0  0  0  0  0  0  0  0  0
   42.0700   -1.1570   35.3140 C   0  0  0  0  0  0  0  0  0  0  0  0
   43.0570    1.1030   34.3250 C   0  0  1  0  0  0  0  0  0  0  0  0
   42.3580    0.9410   32.9410 C   0  0  0  0  0  0  0  0  0  0  0  0
   43.0160    2.4910   34.6970 O   0  0  0  0  0  0  0  0  0  0  0  0
   44.5870    0.6500   34.1770 C   0  0  2  0  0  0  0  0  0  0  0  0
   45.2070    1.1300   35.3580 O   0  0  0  0  0  0  0  0  0  0  0  0
   45.2200    1.3180   32.9620 C   0  0  1  0  0  0  0  0  0  0  0  0
   46.6630    0.9190   32.7580 C   0  0  0  0  0  0  0  0  0  0  0  0
   44.5020    0.9460   31.7670 O   0  0  0  0  0  0  0  0  0  0  0  0
   43.1440    1.3750   31.7200 C   0  0  1  0  0  0  0  0  0  0  0  0
   42.4760    0.9390   30.5390 O   0  0  0  0  0  0  0  0  0  0  0  0
   42.9370    1.5520   29.3040 C   0  0  2  0  0  0  0  0  0  0  0  0
   42.4210    2.9870   29.2900 C   0  0  0  0  0  0  0  0  0  0  0  0
   42.6300    3.6580   27.9260 C   0  0  0  0  0  0  0  0  0  0  0  0
   42.1430    2.7530   26.8270 C   0  0  0  0  0  0  0  0  0  0  0  0
   41.0920    3.0400   26.0790 C   0  0  0  0  0  0  0  0  0  0  0  0
   42.9460    1.4630   26.7740 C   0  0  1  0  0  0  0  0  0  0  0  0
   42.5650    0.6460   28.0440 C   0  0  1  0  0  0  0  0  0  0  0  0
   43.3390   -0.6430   28.0560 C   0  0  0  0  0  0  0  0  0  0  0  0
   43.8300   -1.2560   26.9810 C   0  0  0  0  0  0  0  0  0  0  0  0
   43.7160   -0.7640   25.5630 C   0  0  2  0  0  0  0  0  0  0  0  0
   45.0890   -0.6860   24.8930 C   0  0  0  0  0  0  0  0  0  0  0  0
   42.8860    0.5390   25.5240 C   0  0  2  0  0  0  0  0  0  0  0  0
   43.1600    1.3000   24.1790 C   0  0  0  0  0  0  0  0  0  0  0  0
   44.1530    2.2220   24.0920 O   0  0  0  0  0  0  0  0  0  0  0  0
   42.4360    1.0580   23.0360 C   0  0  0  0  0  0  0  0  0  0  0  0
   41.4110    0.0440   22.9450 C   0  0  0  0  0  0  0  0  0  0  0  0
   41.0040   -0.7320   23.8000 O   0  0  0  0  0  0  0  0  0  0  0  0
   42.5390    1.7060   21.7290 C   0  0  0  0  0  0  0  0  0  0  0  0
   43.4130    2.4480   21.3100 O   0  0  0  0  0  0  0  0  0  0  0  0
   41.3700    1.1810   20.8300 C   0  0  2  0  0  0  0  0  0  0  0  0
   40.2300    2.2250   20.6730 C   0  0  0  0  0  0  0  0  0  0  0  0
   40.7530    3.6490   20.4960 C   0  0  0  0  0  0  0  0  0  0  0  0
   39.2640    1.8620   19.5390 C   0  0  0  0  0  0  0  0  0  0  0  0
   40.8920    0.0570   21.6390 N   0  0  0  0  0  0  0  0  0  0  0  0
   40.0690   -1.0750   21.0980 C   0  0  1  0  0  0  0  0  0  0  0  0
   40.4350   -2.4850   21.5460 C   0  0  2  0  0  0  0  0  0  0  0  0
   41.7960   -2.9010   21.3690 O   0  0  0  0  0  0  0  0  0  0  0  0
   42.5260   -2.3260   20.2770 C   0  0  0  0  0  0  0  0  0  0  0  0
   38.7230   -0.7910   21.4590 O   0  0  0  0  0  0  0  0  0  0  0  0
   37.0990   -4.0310   20.7480 O   0  0  0  0  0  0  0  0  0  0  0  0
   36.7470   -5.2980   21.2620 C   0  0  0  0  0  0  0  0  0  0  0  0
   35.6310   -5.7350   21.0910 O   0  0  0  0  0  0  0  0  0  0  0  0
   37.7320   -5.9330   21.8920 N   0  0  0  0  0  0  0  0  0  0  0  0
   39.5020   -3.2560   19.4650 O   0  0  0  0  0  0  0  0  0  0  0  0
   39.8300   -4.3140   18.6890 C   0  0  0  0  0  0  0  0  0  0  0  0
   39.7930   -5.4560   19.0670 O   0  0  0  0  0  0  0  0  0  0  0  0
   40.2400   -3.8610   17.3300 C   0  0  0  0  0  0  0  0  0  0  0  0
   38.0077   -3.3423   22.4858 H   0  0  0  0  0  0  0  0  0  0  0  0
   36.8061   -1.4727   21.8434 H   0  0  0  0  0  0  0  0  0  0  0  0
   36.8915   -0.3461   19.6633 H   0  0  0  0  0  0  0  0  0  0  0  0
   36.2734   -2.0276   19.5324 H   0  0  0  0  0  0  0  0  0  0  0  0
   37.9573   -1.6484   19.0350 H   0  0  0  0  0  0  0  0  0  0  0  0
   39.7178   -4.4774   21.1490 H   0  0  0  0  0  0  0  0  0  0  0  0
   36.5445    2.3501   39.8515 H   0  0  0  0  0  0  0  0  0  0  0  0
   35.2551    1.4435   38.9900 H   0  0  0  0  0  0  0  0  0  0  0  0
   35.4161    3.2171   38.7554 H   0  0  0  0  0  0  0  0  0  0  0  0
   38.6977    1.9585   38.9007 H   0  0  0  0  0  0  0  0  0  0  0  0
   40.3703    1.1731   34.8247 H   0  0  0  0  0  0  0  0  0  0  0  0
   42.8225    0.5135   36.4284 H   0  0  0  0  0  0  0  0  0  0  0  0
   43.0542   -1.6339   35.1961 H   0  0  0  0  0  0  0  0  0  0  0  0
   41.4612   -1.3461   34.4176 H   0  0  0  0  0  0  0  0  0  0  0  0
   41.5633   -1.5751   36.1963 H   0  0  0  0  0  0  0  0  0  0  0  0
   41.4305    1.5318   32.9661 H   0  0  0  0  0  0  0  0  0  0  0  0
   42.1114   -0.1237   32.8160 H   0  0  0  0  0  0  0  0  0  0  0  0
   43.4392    2.6044   35.5399 H   0  0  0  0  0  0  0  0  0  0  0  0
   44.6723   -0.4436   34.0956 H   0  0  0  0  0  0  0  0  0  0  0  0
   44.7899    0.7369   36.1155 H   0  0  0  0  0  0  0  0  0  0  0  0
   45.1671    2.4082   33.0983 H   0  0  0  0  0  0  0  0  0  0  0  0
   47.0630    1.4309   31.8703 H   0  0  0  0  0  0  0  0  0  0  0  0
   46.7254   -0.1696   32.6127 H   0  0  0  0  0  0  0  0  0  0  0  0
   47.2511    1.2052   33.6424 H   0  0  0  0  0  0  0  0  0  0  0  0
   43.1550    2.4749   31.7070 H   0  0  0  0  0  0  0  0  0  0  0  0
   44.0353    1.6041   29.3349 H   0  0  0  0  0  0  0  0  0  0  0  0
   42.9578    3.5652   30.0565 H   0  0  0  0  0  0  0  0  0  0  0  0
   41.3457    2.9804   29.5218 H   0  0  0  0  0  0  0  0  0  0  0  0
   43.7010    3.8630   27.7812 H   0  0  0  0  0  0  0  0  0  0  0  0
   42.0682    4.6032   27.8952 H   0  0  0  0  0  0  0  0  0  0  0  0
   40.7777    2.3527   25.2949 H   0  0  0  0  0  0  0  0  0  0  0  0
   40.5402    3.9638   26.2467 H   0  0  0  0  0  0  0  0  0  0  0  0
   44.0007    1.7622   26.8635 H   0  0  0  0  0  0  0  0  0  0  0  0
   41.4874    0.4254   28.0464 H   0  0  0  0  0  0  0  0  0  0  0  0
   43.5121   -1.1135   29.0228 H   0  0  0  0  0  0  0  0  0  0  0  0
   44.3596   -2.1939   27.1413 H   0  0  0  0  0  0  0  0  0  0  0  0
   43.1424   -1.5158   25.0012 H   0  0  0  0  0  0  0  0  0  0  0  0
   45.5936   -1.6599   24.9765 H   0  0  0  0  0  0  0  0  0  0  0  0
   45.6961    0.0852   25.3896 H   0  0  0  0  0  0  0  0  0  0  0  0
   44.9647   -0.4273   23.8311 H   0  0  0  0  0  0  0  0  0  0  0  0
   41.8375    0.2097   25.4765 H   0  0  0  0  0  0  0  0  0  0  0  0
   44.1754    2.5795   23.2121 H   0  0  0  0  0  0  0  0  0  0  0  0
   41.7284    0.8624   19.8400 H   0  0  0  0  0  0  0  0  0  0  0  0
   39.6530    2.2072   21.6093 H   0  0  0  0  0  0  0  0  0  0  0  0
   39.9043    4.3408   20.3903 H   0  0  0  0  0  0  0  0  0  0  0  0
   41.3815    3.6994   19.5947 H   0  0  0  0  0  0  0  0  0  0  0  0
   41.3497    3.9325   21.3755 H   0  0  0  0  0  0  0  0  0  0  0  0
   38.8985    0.8346   19.6835 H   0  0  0  0  0  0  0  0  0  0  0  0
   39.7879    1.9325   18.5744 H   0  0  0  0  0  0  0  0  0  0  0  0
   38.4125    2.5584   19.5456 H   0  0  0  0  0  0  0  0  0  0  0  0
   40.1592   -1.0556   20.0019 H   0  0  0  0  0  0  0  0  0  0  0  0
   40.2593   -2.5189   22.6313 H   0  0  0  0  0  0  0  0  0  0  0  0
   43.5475   -2.7339   20.2637 H   0  0  0  0  0  0  0  0  0  0  0  0
   42.5690   -1.2337   20.3994 H   0  0  0  0  0  0  0  0  0  0  0  0
   42.0217   -2.5694   19.3302 H   0  0  0  0  0  0  0  0  0  0  0  0
   37.5713   -6.8372   22.2878 H   0  0  0  0  0  0  0  0  0  0  0  0
   38.6330   -5.5061   21.9697 H   0  0  0  0  0  0  0  0  0  0  0  0
   40.5022   -4.7351   16.7158 H   0  0  0  0  0  0  0  0  0  0  0  0
   41.1123   -3.1961   17.4128 H   0  0  0  0  0  0  0  0  0  0  0  0
   39.4081   -3.3176   16.8581 H   0  0  0  0  0  0  0  0  0  0  0  0
  1  2  1  0  0  0  0
  1 57  1  0  0  0  0
  1 65  1  1  0  0  0
  2  3  1  0  0  0  0
  2 56  1  0  0  0  0
  2 66  1  1  0  0  0
  3 67  1  0  0  0  0
  3 68  1  0  0  0  0
  3 69  1  0  0  0  0
  4  1  1  0  0  0  0
  4 61  1  0  0  0  0
  4 70  1  1  0  0  0
  6  5  1  0  0  0  0
  6  7  1  0  0  0  0
  7  8  1  0  0  0  0
  9  7  2  0  0  0  0
  9 10  1  0  0  0  0
 10 71  1  0  0  0  0
 10 72  1  0  0  0  0
 10 73  1  0  0  0  0
 11  9  1  0  0  0  0
 11 74  1  0  0  0  0
 12  6  2  0  0  0  0
 12 11  1  0  0  0  0
 13 12  1  0  0  0  0
 13 14  2  0  0  0  0
 15 13  1  0  0  0  0
 15 75  1  0  0  0  0
 16 15  1  0  0  0  0
 16 17  1  0  0  0  0
 16 76  1  1  0  0  0
 17 77  1  0  0  0  0
 17 78  1  0  0  0  0
 17 79  1  0  0  0  0
 18 16  1  0  0  0  0
 18 20  1  1  0  0  0
 18 21  1  0  0  0  0
 19 18  1  0  0  0  0
 19 80  1  0  0  0  0
 19 81  1  0  0  0  0
 20 82  1  0  0  0  0
 21 22  1  0  0  0  0
 21 83  1  6  0  0  0
 22 84  1  0  0  0  0
 23 21  1  0  0  0  0
 23 24  1  0  0  0  0
 23 85  1  1  0  0  0
 24 86  1  0  0  0  0
 24 87  1  0  0  0  0
 24 88  1  0  0  0  0
 25 23  1  0  0  0  0
 26 19  1  0  0  0  0
 26 25  1  0  0  0  0
 26 89  1  6  0  0  0
 27 26  1  0  0  0  0
 28 27  1  0  0  0  0
 28 29  1  0  0  0  0
 28 90  1  1  0  0  0
 29 91  1  0  0  0  0
 29 92  1  0  0  0  0
 30 29  1  0  0  0  0
 30 93  1  0  0  0  0
 30 94  1  0  0  0  0
 31 30  1  0  0  0  0
 31 32  2  0  0  0  0
 32 95  1  0  0  0  0
 32 96  1  0  0  0  0
 33 31  1  0  0  0  0
 33 34  1  0  0  0  0
 33 97  1  1  0  0  0
 34 28  1  0  0  0  0
 34 35  1  0  0  0  0
 34 98  1  6  0  0  0
 35 99  1  0  0  0  0
 36 35  2  0  0  0  0
 36100  1  0  0  0  0
 37 36  1  0  0  0  0
 37 38  1  0  0  0  0
 37101  1  6  0  0  0
 38102  1  0  0  0  0
 38103  1  0  0  0  0
 38104  1  0  0  0  0
 39 33  1  0  0  0  0
 39 37  1  0  0  0  0
 39105  1  6  0  0  0
 40 39  1  0  0  0  0
 40 41  1  0  0  0  0
 41106  1  0  0  0  0
 42 40  2  0  0  0  0
 43 42  1  0  0  0  0
 43 44  2  0  0  0  0
 45 42  1  0  0  0  0
 45 46  2  0  0  0  0
 47 45  1  0  0  0  0
 47 48  1  0  0  0  0
 47107  1  6  0  0  0
 48 49  1  0  0  0  0
 48 50  1  0  0  0  0
 48108  1  0  0  0  0
 49109  1  0  0  0  0
 49110  1  0  0  0  0
 49111  1  0  0  0  0
 50112  1  0  0  0  0
 50113  1  0  0  0  0
 50114  1  0  0  0  0
 51 43  1  0  0  0  0
 51 47  1  0  0  0  0
 52 51  1  0  0  0  0
 52 53  1  0  0  0  0
 52 56  1  0  0  0  0
 52115  1  6  0  0  0
 53  4  1  0  0  0  0
 53 54  1  0  0  0  0
 53116  1  1  0  0  0
 54 55  1  0  0  0  0
 55117  1  0  0  0  0
 55118  1  0  0  0  0
 55119  1  0  0  0  0
 57 58  1  0  0  0  0
 58 59  2  0  0  0  0
 58 60  1  0  0  0  0
 60120  1  0  0  0  0
 60121  1  0  0  0  0
 61 62  1  0  0  0  0
 62 63  2  0  0  0  0
 62 64  1  0  0  0  0
 64122  1  0  0  0  0
 64123  1  0  0  0  0
 64124  1  0  0  0  0
M  END
