4urn_ligand
 OpenBabel08222323353D

 80 83  0  0  1  0  0  0  0  0999 V2000
  -30.3150    2.2170    3.2210 C   0  0  0  0  0  0  0  0  0  0  0  0
  -30.4790    3.1370    2.1470 O   0  0  0  0  0  0  0  0  0  0  0  0
  -26.4050    1.5070    0.6200 N   0  0  0  0  0  0  0  0  0  0  0  0
  -27.3600    2.1960    0.0040 C   0  0  0  0  0  0  0  0  0  0  0  0
  -27.1760    3.0470   -0.8450 O   0  0  0  0  0  0  0  0  0  0  0  0
  -28.5800    1.8320    0.4540 O   0  0  0  0  0  0  0  0  0  0  0  0
  -30.8890    2.5420    0.9190 C   0  0  2  0  0  0  0  0  0  0  0  0
  -29.7360    2.5110   -0.0830 C   0  0  2  0  0  0  0  0  0  0  0  0
  -30.1870    1.9120   -1.4110 C   0  0  1  0  0  0  0  0  0  0  0  0
  -30.6120    0.5640   -1.2800 O   0  0  0  0  0  0  0  0  0  0  0  0
  -31.2960    2.7670   -2.0130 C   0  0  1  0  0  0  0  0  0  0  0  0
  -32.3600    3.0380   -1.0900 O   0  0  0  0  0  0  0  0  0  0  0  0
  -32.1250    3.3550    0.3120 C   0  0  0  0  0  0  0  0  0  0  0  0
  -31.9490    4.8680    0.3910 C   0  0  0  0  0  0  0  0  0  0  0  0
  -33.3910    2.9360    1.0380 C   0  0  0  0  0  0  0  0  0  0  0  0
  -30.6570    3.9260   -2.5100 O   0  0  0  0  0  0  0  0  0  0  0  0
  -31.3500    4.8460   -3.2640 C   0  0  0  0  0  0  0  0  0  0  0  0
  -30.5550    5.8910   -3.7550 C   0  0  0  0  0  0  0  0  0  0  0  0
  -29.0590    5.9090   -3.5280 C   0  0  0  0  0  0  0  0  0  0  0  0
  -31.1870    6.8660   -4.5260 C   0  0  0  0  0  0  0  0  0  0  0  0
  -32.5560    6.8290   -4.8090 C   0  0  0  0  0  0  0  0  0  0  0  0
  -33.3170    5.7840   -4.2800 C   0  0  0  0  0  0  0  0  0  0  0  0
  -32.7220    4.7900   -3.5210 C   0  0  0  0  0  0  0  0  0  0  0  0
  -30.3640    7.8400   -5.0600 O   0  0  0  0  0  0  0  0  0  0  0  0
  -30.8200    8.8070   -5.9320 C   0  0  0  0  0  0  0  0  0  0  0  0
  -29.9930    9.5960   -6.3250 O   0  0  0  0  0  0  0  0  0  0  0  0
  -32.3010    8.7770   -6.2980 C   0  0  0  0  0  0  0  0  0  0  0  0
  -33.1000    7.8330   -5.7100 C   0  0  0  0  0  0  0  0  0  0  0  0
  -34.4150    7.7870   -5.8840 O   0  0  0  0  0  0  0  0  0  0  0  0
  -32.6060    9.7060   -7.3200 N   0  0  0  0  0  0  0  0  0  0  0  0
  -32.8100    9.3560   -8.6440 C   0  0  0  0  0  0  0  0  0  0  0  0
  -32.8500    8.1840   -9.0210 O   0  0  0  0  0  0  0  0  0  0  0  0
  -33.0030   10.4830   -9.6120 C   0  0  0  0  0  0  0  0  0  0  0  0
  -33.4920   11.7250   -9.2080 C   0  0  0  0  0  0  0  0  0  0  0  0
  -33.7280   12.7510  -10.1280 C   0  0  0  0  0  0  0  0  0  0  0  0
  -33.4690   12.5020  -11.4820 C   0  0  0  0  0  0  0  0  0  0  0  0
  -33.7300   13.4550  -12.4160 O   0  0  0  0  0  0  0  0  0  0  0  0
  -32.9650   11.2680  -11.8880 C   0  0  0  0  0  0  0  0  0  0  0  0
  -32.7320   10.2710  -10.9610 C   0  0  0  0  0  0  0  0  0  0  0  0
  -34.2170   14.1180   -9.6780 C   0  0  0  0  0  0  0  0  0  0  0  0
  -34.9910   14.1960   -8.3900 C   0  0  0  0  0  0  0  0  0  0  0  0
  -36.1620   14.7820   -8.1720 C   0  0  0  0  0  0  0  0  0  0  0  0
  -36.8020   14.7780   -6.8180 C   0  0  0  0  0  0  0  0  0  0  0  0
  -36.9630   15.4780   -9.2360 C   0  0  0  0  0  0  0  0  0  0  0  0
  -29.9993    2.7601    4.1240 H   0  0  0  0  0  0  0  0  0  0  0  0
  -29.5493    1.4739    2.9536 H   0  0  0  0  0  0  0  0  0  0  0  0
  -31.2697    1.7063    3.4154 H   0  0  0  0  0  0  0  0  0  0  0  0
  -25.4451    1.6680    0.3906 H   0  0  0  0  0  0  0  0  0  0  0  0
  -26.6463    0.8276    1.3129 H   0  0  0  0  0  0  0  0  0  0  0  0
  -31.2080    1.5083    1.1180 H   0  0  0  0  0  0  0  0  0  0  0  0
  -29.4401    3.5526   -0.2768 H   0  0  0  0  0  0  0  0  0  0  0  0
  -29.3281    1.9276   -2.0981 H   0  0  0  0  0  0  0  0  0  0  0  0
  -29.8939    0.0375   -0.9488 H   0  0  0  0  0  0  0  0  0  0  0  0
  -31.7373    2.2230   -2.8611 H   0  0  0  0  0  0  0  0  0  0  0  0
  -32.8310    5.3628   -0.0418 H   0  0  0  0  0  0  0  0  0  0  0  0
  -31.0506    5.1625   -0.1713 H   0  0  0  0  0  0  0  0  0  0  0  0
  -31.8385    5.1699    1.4430 H   0  0  0  0  0  0  0  0  0  0  0  0
  -34.2488    3.4895    0.6283 H   0  0  0  0  0  0  0  0  0  0  0  0
  -33.2894    3.1586    2.1104 H   0  0  0  0  0  0  0  0  0  0  0  0
  -33.5520    1.8565    0.9011 H   0  0  0  0  0  0  0  0  0  0  0  0
  -28.7738    5.0552   -2.8958 H   0  0  0  0  0  0  0  0  0  0  0  0
  -28.7753    6.8466   -3.0277 H   0  0  0  0  0  0  0  0  0  0  0  0
  -28.5404    5.8381   -4.4955 H   0  0  0  0  0  0  0  0  0  0  0  0
  -34.3845    5.7506   -4.4655 H   0  0  0  0  0  0  0  0  0  0  0  0
  -33.3173    3.9735   -3.1287 H   0  0  0  0  0  0  0  0  0  0  0  0
  -34.7735    7.0591   -5.3897 H   0  0  0  0  0  0  0  0  0  0  0  0
  -32.6785   10.6720   -7.0718 H   0  0  0  0  0  0  0  0  0  0  0  0
  -33.6936   11.8988   -8.1572 H   0  0  0  0  0  0  0  0  0  0  0  0
  -33.4985   13.1254  -13.2763 H   0  0  0  0  0  0  0  0  0  0  0  0
  -32.7548   11.0897  -12.9364 H   0  0  0  0  0  0  0  0  0  0  0  0
  -32.3351    9.3162  -11.2863 H   0  0  0  0  0  0  0  0  0  0  0  0
  -34.8644   14.5137  -10.4745 H   0  0  0  0  0  0  0  0  0  0  0  0
  -33.3330   14.7635   -9.5693 H   0  0  0  0  0  0  0  0  0  0  0  0
  -34.5333   13.7111   -7.5290 H   0  0  0  0  0  0  0  0  0  0  0  0
  -37.7602   15.3164   -6.8638 H   0  0  0  0  0  0  0  0  0  0  0  0
  -36.1366   15.2745   -6.0964 H   0  0  0  0  0  0  0  0  0  0  0  0
  -36.9794   13.7402   -6.4993 H   0  0  0  0  0  0  0  0  0  0  0  0
  -36.4205   15.4326  -10.1919 H   0  0  0  0  0  0  0  0  0  0  0  0
  -37.1162   16.5293   -8.9509 H   0  0  0  0  0  0  0  0  0  0  0  0
  -37.9386   14.9815   -9.3442 H   0  0  0  0  0  0  0  0  0  0  0  0
  1 45  1  0  0  0  0
  1 46  1  0  0  0  0
  1 47  1  0  0  0  0
  2  1  1  0  0  0  0
  3 48  1  0  0  0  0
  3 49  1  0  0  0  0
  4  3  1  0  0  0  0
  4  5  2  0  0  0  0
  6  4  1  0  0  0  0
  7  2  1  0  0  0  0
  7  8  1  0  0  0  0
  7 13  1  0  0  0  0
  7 50  1  1  0  0  0
  8  6  1  0  0  0  0
  8  9  1  0  0  0  0
  8 51  1  6  0  0  0
  9 10  1  0  0  0  0
  9 11  1  0  0  0  0
  9 52  1  6  0  0  0
 10 53  1  0  0  0  0
 11 12  1  0  0  0  0
 11 16  1  0  0  0  0
 11 54  1  6  0  0  0
 12 13  1  0  0  0  0
 13 14  1  0  0  0  0
 13 15  1  0  0  0  0
 14 55  1  0  0  0  0
 14 56  1  0  0  0  0
 14 57  1  0  0  0  0
 15 58  1  0  0  0  0
 15 59  1  0  0  0  0
 15 60  1  0  0  0  0
 16 17  1  0  0  0  0
 17 18  2  0  0  0  0
 17 23  1  0  0  0  0
 18 19  1  0  0  0  0
 18 20  1  0  0  0  0
 19 61  1  0  0  0  0
 19 62  1  0  0  0  0
 19 63  1  0  0  0  0
 20 21  2  0  0  0  0
 20 24  1  0  0  0  0
 21 22  1  0  0  0  0
 21 28  1  0  0  0  0
 22 23  2  0  0  0  0
 22 64  1  0  0  0  0
 23 65  1  0  0  0  0
 24 25  1  0  0  0  0
 25 26  2  0  0  0  0
 25 27  1  0  0  0  0
 27 28  2  0  0  0  0
 27 30  1  0  0  0  0
 28 29  1  0  0  0  0
 29 66  1  0  0  0  0
 30 31  1  0  0  0  0
 30 67  1  0  0  0  0
 31 32  2  0  0  0  0
 31 33  1  0  0  0  0
 33 34  2  0  0  0  0
 33 39  1  0  0  0  0
 34 35  1  0  0  0  0
 34 68  1  0  0  0  0
 35 36  2  0  0  0  0
 35 40  1  0  0  0  0
 36 37  1  0  0  0  0
 36 38  1  0  0  0  0
 37 69  1  0  0  0  0
 38 39  2  0  0  0  0
 38 70  1  0  0  0  0
 39 71  1  0  0  0  0
 40 41  1  0  0  0  0
 40 72  1  0  0  0  0
 40 73  1  0  0  0  0
 41 42  2  0  0  0  0
 41 74  1  0  0  0  0
 42 43  1  0  0  0  0
 42 44  1  0  0  0  0
 43 75  1  0  0  0  0
 43 76  1  0  0  0  0
 43 77  1  0  0  0  0
 44 78  1  0  0  0  0
 44 79  1  0  0  0  0
 44 80  1  0  0  0  0
M  END
