4urv_ligand
 OpenBabel08222323353D

 29 30  0  0  0  0  0  0  0  0999 V2000
   44.6850   42.2550   73.7790 Br  0  0  0  0  0  0  0  0  0  0  0  0
   45.2670   41.4970   75.4250 C   0  0  0  0  0  0  0  0  0  0  0  0
   45.8670   42.3090   76.3740 C   0  0  0  0  0  0  0  0  0  0  0  0
   46.2650   41.7550   77.5800 C   0  0  0  0  0  0  0  0  0  0  0  0
   45.0560   40.1500   75.6700 C   0  0  0  0  0  0  0  0  0  0  0  0
   45.4570   39.6170   76.8860 C   0  0  0  0  0  0  0  0  0  0  0  0
   46.0550   40.4080   77.8650 C   0  0  0  0  0  0  0  0  0  0  0  0
   46.5420   39.7990   79.1790 C   0  0  0  0  0  0  0  0  0  0  0  0
   45.7350   38.6690   79.5310 O   0  0  0  0  0  0  0  0  0  0  0  0
   46.4550   40.8210   80.3210 C   0  0  0  0  0  0  0  0  0  0  0  0
   47.0670   40.3010   81.6050 C   0  0  0  0  0  0  0  0  0  0  0  0
   48.4740   39.9270   81.3870 N   0  3  0  0  0  0  0  0  0  0  0  0
   48.5760   38.8720   80.3640 C   0  0  0  0  0  0  0  0  0  0  0  0
   47.9880   39.3070   79.0380 C   0  0  0  0  0  0  0  0  0  0  0  0
   46.0229   43.3632   76.1756 H   0  0  0  0  0  0  0  0  0  0  0  0
   46.7504   42.3836   78.3178 H   0  0  0  0  0  0  0  0  0  0  0  0
   44.5846   39.5221   74.9226 H   0  0  0  0  0  0  0  0  0  0  0  0
   45.3018   38.5617   77.0791 H   0  0  0  0  0  0  0  0  0  0  0  0
   46.0479   38.3002   80.3487 H   0  0  0  0  0  0  0  0  0  0  0  0
   45.3965   41.0577   80.5041 H   0  0  0  0  0  0  0  0  0  0  0  0
   46.9883   41.7346   80.0196 H   0  0  0  0  0  0  0  0  0  0  0  0
   46.5052   39.4177   81.9428 H   0  0  0  0  0  0  0  0  0  0  0  0
   47.0153   41.0850   82.3749 H   0  0  0  0  0  0  0  0  0  0  0  0
   48.8650   39.5886   82.2523 H   0  0  0  0  0  0  0  0  0  0  0  0
   48.9887   40.7374   81.0799 H   0  0  0  0  0  0  0  0  0  0  0  0
   48.0350   37.9817   80.7171 H   0  0  0  0  0  0  0  0  0  0  0  0
   49.6370   38.6219   80.2167 H   0  0  0  0  0  0  0  0  0  0  0  0
   48.6017   40.1232   78.6291 H   0  0  0  0  0  0  0  0  0  0  0  0
   48.0056   38.4526   78.3454 H   0  0  0  0  0  0  0  0  0  0  0  0
  1  2  1  0  0  0  0
  2  3  2  0  0  0  0
  2  5  1  0  0  0  0
  3  4  1  0  0  0  0
  3 15  1  0  0  0  0
  4  7  2  0  0  0  0
  4 16  1  0  0  0  0
  5  6  2  0  0  0  0
  5 17  1  0  0  0  0
  6  7  1  0  0  0  0
  6 18  1  0  0  0  0
  7  8  1  0  0  0  0
  8  9  1  0  0  0  0
  8 10  1  0  0  0  0
  8 14  1  0  0  0  0
  9 19  1  0  0  0  0
 10 11  1  0  0  0  0
 10 20  1  0  0  0  0
 10 21  1  0  0  0  0
 11 12  1  0  0  0  0
 11 22  1  0  0  0  0
 11 23  1  0  0  0  0
 12 13  1  0  0  0  0
 12 24  1  0  0  0  0
 12 25  1  0  0  0  0
 13 14  1  0  0  0  0
 13 26  1  0  0  0  0
 13 27  1  0  0  0  0
 14 28  1  0  0  0  0
 14 29  1  0  0  0  0
M  CHG  1  12   1
M  END
