4urx_ligand
 OpenBabel08222323353D

 26 27  0  0  1  0  0  0  0  0999 V2000
   44.2210   43.6590   80.3970 C   0  0  0  0  0  0  0  0  0  0  0  0
   46.9220   39.6980   78.8740 N   0  3  1  0  0  0  0  0  0  0  0  0
   42.9980   44.8090   81.2920 Br  0  0  0  0  0  0  0  0  0  0  0  0
   45.3090   43.1700   81.0790 C   0  0  0  0  0  0  0  0  0  0  0  0
   46.1700   42.2990   80.4370 C   0  0  0  0  0  0  0  0  0  0  0  0
   46.0130   42.0000   79.0930 C   0  0  0  0  0  0  0  0  0  0  0  0
   46.9800   41.0820   78.3900 C   0  0  0  0  0  0  0  0  0  0  0  0
   45.6940   39.0120   78.4600 C   0  0  0  0  0  0  0  0  0  0  0  0
   46.0200   37.5480   78.6380 C   0  0  0  0  0  0  0  0  0  0  0  0
   47.4970   37.4490   78.5000 C   0  0  0  0  0  0  0  0  0  0  0  0
   47.9980   38.8670   78.3190 C   0  0  0  0  0  0  0  0  0  0  0  0
   44.9370   42.5490   78.4150 C   0  0  0  0  0  0  0  0  0  0  0  0
   44.0200   43.3540   79.0650 C   0  0  0  0  0  0  0  0  0  0  0  0
   46.9840   39.7125   79.8800 H   0  0  0  0  0  0  0  0  0  0  0  0
   45.4900   43.4632   82.1068 H   0  0  0  0  0  0  0  0  0  0  0  0
   46.9805   41.8429   80.9938 H   0  0  0  0  0  0  0  0  0  0  0  0
   46.7467   41.0861   77.3150 H   0  0  0  0  0  0  0  0  0  0  0  0
   47.9998   41.4639   78.5454 H   0  0  0  0  0  0  0  0  0  0  0  0
   45.4558   39.2352   77.4096 H   0  0  0  0  0  0  0  0  0  0  0  0
   44.8474   39.3051   79.0983 H   0  0  0  0  0  0  0  0  0  0  0  0
   45.3201   36.7355   78.8276 H   0  0  0  0  0  0  0  0  0  0  0  0
   48.0973   36.5407   78.5242 H   0  0  0  0  0  0  0  0  0  0  0  0
   48.9367   39.0233   78.8706 H   0  0  0  0  0  0  0  0  0  0  0  0
   48.1565   39.0926   77.2541 H   0  0  0  0  0  0  0  0  0  0  0  0
   44.8120   42.3442   77.3579 H   0  0  0  0  0  0  0  0  0  0  0  0
   43.1557   43.7402   78.5369 H   0  0  0  0  0  0  0  0  0  0  0  0
  1  3  1  0  0  0  0
  1 13  1  0  0  0  0
  2  8  1  0  0  0  0
  2 11  1  0  0  0  0
  2 14  1  1  0  0  0
  4  1  2  0  0  0  0
  4 15  1  0  0  0  0
  5  4  1  0  0  0  0
  5 16  1  0  0  0  0
  6  5  2  0  0  0  0
  6  7  1  0  0  0  0
  6 12  1  0  0  0  0
  7  2  1  0  0  0  0
  7 17  1  0  0  0  0
  7 18  1  0  0  0  0
  8  9  1  0  0  0  0
  8 19  1  0  0  0  0
  8 20  1  0  0  0  0
  9 10  2  0  0  0  0
  9 21  1  0  0  0  0
 10 11  1  0  0  0  0
 10 22  1  0  0  0  0
 11 23  1  0  0  0  0
 11 24  1  0  0  0  0
 12 13  2  0  0  0  0
 12 25  1  0  0  0  0
 13 26  1  0  0  0  0
M  CHG  1   2   1
M  END
