4us4_ligand
 OpenBabel08222323353D

 27 28  0  0  1  0  0  0  0  0999 V2000
  -14.0650  -16.4980   27.9150 N   0  3  0  0  0  0  0  0  0  0  0  0
  -14.5580  -16.1250   26.5950 C   0  0  2  0  0  0  0  0  0  0  0  0
  -13.9160  -14.8250   26.1260 C   0  0  0  0  0  0  0  0  0  0  0  0
  -14.1290  -14.3840   24.9970 O   0  5  0  0  0  0  0  0  0  0  0  0
  -16.0840  -15.9900   26.6070 C   0  0  0  0  0  0  0  0  0  0  0  0
  -16.7780  -17.1620   27.2340 C   0  0  0  0  0  0  0  0  0  0  0  0
  -16.9440  -18.4040   26.6910 C   0  0  0  0  0  0  0  0  0  0  0  0
  -17.3970  -17.2030   28.5250 C   0  0  0  0  0  0  0  0  0  0  0  0
  -17.6280  -19.2160   27.5650 N   0  0  0  0  0  0  0  0  0  0  0  0
  -17.9170  -18.5010   28.6980 C   0  0  0  0  0  0  0  0  0  0  0  0
  -17.5630  -16.2680   29.5510 C   0  0  0  0  0  0  0  0  0  0  0  0
  -18.5900  -18.8870   29.8550 C   0  0  0  0  0  0  0  0  0  0  0  0
  -18.2290  -16.6520   30.6980 C   0  0  0  0  0  0  0  0  0  0  0  0
  -18.7340  -17.9500   30.8420 C   0  0  0  0  0  0  0  0  0  0  0  0
  -13.1700  -14.1860   26.8690 O   0  0  0  0  0  0  0  0  0  0  0  0
  -14.5014  -17.3588   28.2057 H   0  0  0  0  0  0  0  0  0  0  0  0
  -14.2870  -15.7691   28.5749 H   0  0  0  0  0  0  0  0  0  0  0  0
  -13.0656  -16.6241   27.8772 H   0  0  0  0  0  0  0  0  0  0  0  0
  -14.2856  -16.9214   25.8868 H   0  0  0  0  0  0  0  0  0  0  0  0
  -16.4340  -15.8915   25.5689 H   0  0  0  0  0  0  0  0  0  0  0  0
  -16.3500  -15.0840   27.1712 H   0  0  0  0  0  0  0  0  0  0  0  0
  -16.5865  -18.7075   25.7081 H   0  0  0  0  0  0  0  0  0  0  0  0
  -17.8815  -20.1999   27.3959 H   0  0  0  0  0  0  0  0  0  0  0  0
  -17.1762  -15.2606   29.4480 H   0  0  0  0  0  0  0  0  0  0  0  0
  -18.9842  -19.8903   29.9691 H   0  0  0  0  0  0  0  0  0  0  0  0
  -18.3632  -15.9362   31.5009 H   0  0  0  0  0  0  0  0  0  0  0  0
  -19.2508  -18.2188   31.7562 H   0  0  0  0  0  0  0  0  0  0  0  0
  1  2  1  0  0  0  0
  1 16  1  0  0  0  0
  1 17  1  0  0  0  0
  1 18  1  0  0  0  0
  2  3  1  0  0  0  0
  2  5  1  0  0  0  0
  2 19  1  6  0  0  0
  3  4  1  0  0  0  0
  3 15  2  0  0  0  0
  5  6  1  0  0  0  0
  5 20  1  0  0  0  0
  5 21  1  0  0  0  0
  6  7  2  0  0  0  0
  6  8  1  0  0  0  0
  7  9  1  0  0  0  0
  7 22  1  0  0  0  0
  8 10  2  0  0  0  0
  8 11  1  0  0  0  0
  9 10  1  0  0  0  0
  9 23  1  0  0  0  0
 10 12  1  0  0  0  0
 11 13  2  0  0  0  0
 11 24  1  0  0  0  0
 12 14  2  0  0  0  0
 12 25  1  0  0  0  0
 13 14  1  0  0  0  0
 13 26  1  0  0  0  0
 14 27  1  0  0  0  0
M  CHG  2   1   1   4  -1
M  END
