4usi_ligand
 OpenBabel08222323353D

 14 13  0  0  0  0  0  0  0  0999 V2000
    4.6670   12.4300    1.9680 C   0  0  0  0  0  0  0  0  0  0  0  0
    5.7690   12.6910    2.4410 O   0  5  0  0  0  0  0  0  0  0  0  0
    3.5340   12.6790    2.6530 O   0  0  0  0  0  0  0  0  0  0  0  0
    4.6280   11.8570    0.7230 C   0  0  0  0  0  0  0  0  0  0  0  0
    5.7300   11.5820    0.1730 O   0  0  0  0  0  0  0  0  0  0  0  0
    3.2610   11.5240    0.1210 C   0  0  0  0  0  0  0  0  0  0  0  0
    3.3120   10.5840   -1.1200 C   0  0  0  0  0  0  0  0  0  0  0  0
    3.2880    9.0950   -0.7040 C   0  0  0  0  0  0  0  0  0  0  0  0
    3.4600    8.7140    0.4310 O   0  5  0  0  0  0  0  0  0  0  0  0
    2.9790    8.1560   -1.4840 O   0  0  0  0  0  0  0  0  0  0  0  0
    2.7803   12.4660   -0.1814 H   0  0  0  0  0  0  0  0  0  0  0  0
    2.6539   11.0352    0.8972 H   0  0  0  0  0  0  0  0  0  0  0  0
    4.2365   10.7833   -1.6817 H   0  0  0  0  0  0  0  0  0  0  0  0
    2.4420   10.7902   -1.7607 H   0  0  0  0  0  0  0  0  0  0  0  0
  1  2  1  0  0  0  0
  1  3  2  0  0  0  0
  1  4  1  0  0  0  0
  4  5  2  0  0  0  0
  4  6  1  0  0  0  0
  6  7  1  0  0  0  0
  6 11  1  0  0  0  0
  6 12  1  0  0  0  0
  7  8  1  0  0  0  0
  7 13  1  0  0  0  0
  7 14  1  0  0  0  0
  8  9  1  0  0  0  0
  8 10  2  0  0  0  0
M  CHG  2   2  -1   9  -1
M  END
