4usj_ligand
 OpenBabel08222323353D

 27 26  0  0  1  0  0  0  0  0999 V2000
   79.6950   45.2230   34.1220 N   0  3  0  0  0  0  0  0  0  0  0  0
   78.8330   44.2080   33.5190 C   0  0  2  0  0  0  0  0  0  0  0  0
   77.7770   43.8400   34.5640 C   0  0  0  0  0  0  0  0  0  0  0  0
   76.6800   43.4040   34.2530 O   0  5  0  0  0  0  0  0  0  0  0  0
   79.7100   43.0280   33.0780 C   0  0  0  0  0  0  0  0  0  0  0  0
   79.0700   41.7300   32.6280 C   0  0  0  0  0  0  0  0  0  0  0  0
   79.8680   40.5330   33.1730 C   0  0  0  0  0  0  0  0  0  0  0  0
   80.2280   39.4670   32.2220 N   0  0  0  0  0  0  0  0  0  0  0  0
   80.9910   38.3960   32.5340 C   0  0  0  0  0  3  0  0  0  0  0  0
   81.5040   38.2270   33.7490 N   0  0  0  0  0  0  0  0  0  0  0  0
   81.2580   37.4520   31.6280 N   0  0  0  0  0  0  0  0  0  0  0  0
   77.9640   44.0140   35.7700 O   0  0  0  0  0  0  0  0  0  0  0  0
   80.4075   45.4936   33.4624 H   0  0  0  0  0  0  0  0  0  0  0  0
   80.1293   44.8462   34.9499 H   0  0  0  0  0  0  0  0  0  0  0  0
   79.1426   46.0291   34.3694 H   0  0  0  0  0  0  0  0  0  0  0  0
   78.3284   44.6207   32.6330 H   0  0  0  0  0  0  0  0  0  0  0  0
   80.3611   42.7815   33.9297 H   0  0  0  0  0  0  0  0  0  0  0  0
   80.3241   43.3860   32.2385 H   0  0  0  0  0  0  0  0  0  0  0  0
   79.0599   41.6908   31.5288 H   0  0  0  0  0  0  0  0  0  0  0  0
   78.0382   41.6823   33.0062 H   0  0  0  0  0  0  0  0  0  0  0  0
   79.2680   40.0731   33.9720 H   0  0  0  0  0  0  0  0  0  0  0  0
   80.8037   40.9262   33.5971 H   0  0  0  0  0  0  0  0  0  0  0  0
   79.8755   39.5428   31.2572 H   0  0  0  0  0  0  0  0  0  0  0  0
   82.0815   37.3990   33.9536 H   0  0  0  0  0  0  0  0  0  0  0  0
   81.3239   38.9240   34.4856 H   0  0  0  0  0  0  0  0  0  0  0  0
   80.8843   37.5355   30.6718 H   0  0  0  0  0  0  0  0  0  0  0  0
   81.8376   36.6404   31.8854 H   0  0  0  0  0  0  0  0  0  0  0  0
  1  2  1  0  0  0  0
  1 13  1  0  0  0  0
  1 14  1  0  0  0  0
  1 15  1  0  0  0  0
  2  3  1  0  0  0  0
  2  5  1  0  0  0  0
  2 16  1  6  0  0  0
  3  4  1  0  0  0  0
  3 12  2  0  0  0  0
  5  6  1  0  0  0  0
  5 17  1  0  0  0  0
  5 18  1  0  0  0  0
  6  7  1  0  0  0  0
  6 19  1  0  0  0  0
  6 20  1  0  0  0  0
  7  8  1  0  0  0  0
  7 21  1  0  0  0  0
  7 22  1  0  0  0  0
  8  9  1  0  0  0  0
  8 23  1  0  0  0  0
  9 10  1  0  0  0  0
  9 11  1  0  0  0  0
 10 24  1  0  0  0  0
 10 25  1  0  0  0  0
 11 26  1  0  0  0  0
 11 27  1  0  0  0  0
M  CHG  2   1   1   4  -1
M  END
