4utn_ligand
 OpenBabel08222323353D

146147  0  0  1  0  0  0  0  0999 V2000
   32.9030   26.3060   12.4040 C   0  0  0  0  0  0  0  0  0  0  0  0
   33.1120   27.4320   11.9510 O   0  0  0  0  0  0  0  0  0  0  0  0
   33.5860   25.9080   13.5520 C   0  0  0  0  0  0  0  0  0  0  0  0
   34.5620   24.9140   13.4860 C   0  0  0  0  0  0  0  0  0  0  0  0
   35.2540   24.5210   14.6190 C   0  0  0  0  0  0  0  0  0  0  0  0
   34.9290   25.1430   15.8160 C   0  0  0  0  0  0  0  0  0  0  0  0
   33.9510   26.1360   15.8920 C   0  0  0  0  0  0  0  0  0  0  0  0
   33.2770   26.5260   14.7530 C   0  0  0  0  0  0  0  0  0  0  0  0
   32.0570   25.3760   11.8760 N   0  0  0  0  0  0  0  0  0  0  0  0
   31.1600   25.5520   10.6990 C   0  0  0  0  0  0  0  0  0  0  0  0
   31.5580   24.5480    9.6430 C   0  0  0  0  0  0  0  0  0  0  0  0
   32.7250   24.1590    9.4950 O   0  0  0  0  0  0  0  0  0  0  0  0
   30.5370   24.1550    8.8870 N   0  0  0  0  0  0  0  0  0  0  0  0
   30.5960   23.0050    8.0030 C   0  0  2  0  0  0  0  0  0  0  0  0
   31.4590   23.3180    6.8030 C   0  0  0  0  0  0  0  0  0  0  0  0
   31.4020   24.3990    6.2540 O   0  0  0  0  0  0  0  0  0  0  0  0
   29.1890   22.5870    7.5130 C   0  0  0  0  0  0  0  0  0  0  0  0
   29.2700   21.3320    6.6440 C   0  0  0  0  0  0  0  0  0  0  0  0
   28.2750   22.3470    8.7010 C   0  0  0  0  0  0  0  0  0  0  0  0
   32.2470   22.3440    6.3900 N   0  0  0  0  0  0  0  0  0  0  0  0
   33.1730   22.5440    5.3080 C   0  0  2  0  0  0  0  0  0  0  0  0
   32.5180   22.0190    4.0480 C   0  0  0  0  0  0  0  0  0  0  0  0
   32.1960   20.8320    3.9520 O   0  0  0  0  0  0  0  0  0  0  0  0
   34.4740   21.7960    5.5900 C   0  0  0  0  0  0  0  0  0  0  0  0
   35.7290   22.4410    5.0070 C   0  0  0  0  0  0  0  0  0  0  0  0
   36.5180   23.1770    6.0770 C   0  0  0  0  0  0  0  0  0  0  0  0
   36.5780   21.3870    4.3030 C   0  0  0  0  0  0  0  0  0  0  0  0
   32.3440   21.2710    1.3780 C   0  0  0  0  0  0  0  0  0  0  0  0
   32.2950   22.9320    3.1050 N   0  0  0  0  0  0  0  0  0  0  0  0
   33.5490   21.1020    1.3360 O   0  0  0  0  0  0  0  0  0  0  0  0
   31.7590   22.6210    1.7790 C   0  0  1  0  0  0  0  0  0  0  0  0
   32.1150   23.8030    0.8280 C   0  0  0  0  0  0  0  0  0  0  0  0
   31.0810   23.8590   -1.5000 C   0  0  0  0  0  0  0  0  0  0  0  0
   31.8330   24.6310   -2.5830 C   0  0  0  0  0  0  0  0  0  0  0  0
   32.2780   23.4370   -0.6400 C   0  0  0  0  0  0  0  0  0  0  0  0
   29.9920   25.5380   -5.8190 C   0  0  0  0  0  0  0  0  0  0  0  0
   31.1720   26.4570   -6.2710 C   0  0  0  0  0  0  0  0  0  0  0  0
   31.1670   26.7570   -7.7610 C   0  0  0  0  0  0  0  0  0  0  0  0
   30.7200   24.6060   -4.8190 C   0  0  0  0  0  0  0  0  0  0  0  0
   31.0320   23.4560   -5.1320 O   0  0  0  0  0  0  0  0  0  0  0  0
   30.9970   25.1850   -3.6300 N   0  0  0  0  0  0  0  0  0  0  0  0
   31.6430   27.8610   -8.0760 O   0  5  0  0  0  0  0  0  0  0  0  0
   30.7180   25.9300   -8.5830 O   0  0  0  0  0  0  0  0  0  0  0  0
   31.4630   20.3050    1.1640 N   0  0  0  0  0  0  0  0  0  0  0  0
   31.8030   18.9670    0.6550 C   0  0  2  0  0  0  0  0  0  0  0  0
   32.6360   18.0850    1.6080 C   0  0  0  0  0  0  0  0  0  0  0  0
   33.2230   17.0550    1.2080 O   0  0  0  0  0  0  0  0  0  0  0  0
   32.3830   19.0600   -0.7610 C   0  0  0  0  0  0  0  0  0  0  0  0
   31.2640   18.9270   -1.7860 C   0  0  0  0  0  0  0  0  0  0  0  0
   31.7340   18.9790   -3.2140 C   0  0  0  0  0  0  0  0  0  0  0  0
   32.7140   18.2770   -3.5540 O   0  5  0  0  0  0  0  0  0  0  0  0
   31.1160   19.7360   -3.9990 O   0  0  0  0  0  0  0  0  0  0  0  0
   32.6030   18.4740    2.8840 N   0  0  0  0  0  0  0  0  0  0  0  0
   33.4040   17.8600    3.9260 C   0  0  2  0  0  0  0  0  0  0  0  0
   34.9340   17.9050    3.6760 C   0  0  0  0  0  0  0  0  0  0  0  0
   35.6600   17.1030    4.2590 O   0  0  0  0  0  0  0  0  0  0  0  0
   32.9620   16.4110    4.1150 C   0  0  0  0  0  0  0  0  0  0  0  0
   31.4520   16.1730    4.2590 C   0  0  0  0  0  0  0  0  0  0  0  0
   30.6670   16.9140    5.1600 C   0  0  0  0  0  0  0  0  0  0  0  0
   30.8240   15.1520    3.5320 C   0  0  0  0  0  0  0  0  0  0  0  0
   29.3050   16.6620    5.2900 C   0  0  0  0  0  0  0  0  0  0  0  0
   29.4740   14.8920    3.6690 C   0  0  0  0  0  0  0  0  0  0  0  0
   28.7240   15.6450    4.5380 C   0  0  0  0  0  0  0  0  0  0  0  0
   27.4000   15.3500    4.6400 O   0  0  0  0  0  0  0  0  0  0  0  0
   35.4190   18.8330    2.8390 N   0  0  0  0  0  0  0  0  0  0  0  0
   36.8350   18.9140    2.4540 C   0  0  0  0  0  0  0  0  0  0  0  0
   37.3360   17.9350    1.3930 C   0  0  0  0  0  0  0  0  0  0  0  0
   38.4980   18.0100    0.9990 O   0  0  0  0  0  0  0  0  0  0  0  0
   36.4850   17.0230    0.9190 N   0  0  0  0  0  0  0  0  0  0  0  0
   36.9030   16.0230   -0.0890 C   0  0  2  0  0  0  0  0  0  0  0  0
   37.2200   16.6780   -1.4370 C   0  0  0  0  0  0  0  0  0  0  0  0
   36.3190   16.9920   -2.2210 O   0  5  0  0  0  0  0  0  0  0  0  0
   35.8260   14.9250   -0.3010 C   0  0  0  0  0  0  0  0  0  0  0  0
   36.1990   13.9850   -1.4620 C   0  0  0  0  0  0  0  0  0  0  0  0
   35.6120   14.1460    0.9910 C   0  0  0  0  0  0  0  0  0  0  0  0
   34.7818   24.4427   12.5349 H   0  0  0  0  0  0  0  0  0  0  0  0
   36.0208   23.7562   14.5727 H   0  0  0  0  0  0  0  0  0  0  0  0
   35.4505   24.8488   16.7196 H   0  0  0  0  0  0  0  0  0  0  0  0
   33.7214   26.6000   16.8444 H   0  0  0  0  0  0  0  0  0  0  0  0
   32.5203   27.3010   14.7969 H   0  0  0  0  0  0  0  0  0  0  0  0
   32.0363   24.4829   12.3254 H   0  0  0  0  0  0  0  0  0  0  0  0
   31.2654   26.5719   10.3006 H   0  0  0  0  0  0  0  0  0  0  0  0
   30.1155   25.3816   10.9989 H   0  0  0  0  0  0  0  0  0  0  0  0
   29.6857   24.6780    8.9296 H   0  0  0  0  0  0  0  0  0  0  0  0
   31.0410   22.1640    8.5549 H   0  0  0  0  0  0  0  0  0  0  0  0
   28.7715   23.4049    6.9075 H   0  0  0  0  0  0  0  0  0  0  0  0
   28.2605   21.0534    6.3074 H   0  0  0  0  0  0  0  0  0  0  0  0
   29.7017   20.5073    7.2302 H   0  0  0  0  0  0  0  0  0  0  0  0
   29.9060   21.5322    5.7691 H   0  0  0  0  0  0  0  0  0  0  0  0
   28.2267   23.2576    9.3163 H   0  0  0  0  0  0  0  0  0  0  0  0
   28.6694   21.5167    9.3052 H   0  0  0  0  0  0  0  0  0  0  0  0
   27.2666   22.0929    8.3424 H   0  0  0  0  0  0  0  0  0  0  0  0
   32.1996   21.4508    6.8372 H   0  0  0  0  0  0  0  0  0  0  0  0
   33.3893   23.6165    5.1947 H   0  0  0  0  0  0  0  0  0  0  0  0
   34.3837   20.7838    5.1690 H   0  0  0  0  0  0  0  0  0  0  0  0
   34.5999   21.7296    6.6807 H   0  0  0  0  0  0  0  0  0  0  0  0
   35.4146   23.1802    4.2555 H   0  0  0  0  0  0  0  0  0  0  0  0
   37.4136   23.6293    5.6261 H   0  0  0  0  0  0  0  0  0  0  0  0
   36.8207   22.4684    6.8620 H   0  0  0  0  0  0  0  0  0  0  0  0
   35.8909   23.9662    6.5174 H   0  0  0  0  0  0  0  0  0  0  0  0
   35.9720   20.8788    3.5385 H   0  0  0  0  0  0  0  0  0  0  0  0
   36.9328   20.6504    5.0389 H   0  0  0  0  0  0  0  0  0  0  0  0
   37.4414   21.8717    3.8238 H   0  0  0  0  0  0  0  0  0  0  0  0
   32.5062   23.8866    3.3151 H   0  0  0  0  0  0  0  0  0  0  0  0
   30.6637   22.5303    1.8254 H   0  0  0  0  0  0  0  0  0  0  0  0
   33.0616   24.2434    1.1745 H   0  0  0  0  0  0  0  0  0  0  0  0
   31.3129   24.5519    0.9034 H   0  0  0  0  0  0  0  0  0  0  0  0
   30.5404   22.9929   -1.9095 H   0  0  0  0  0  0  0  0  0  0  0  0
   30.3798   24.5006   -0.9462 H   0  0  0  0  0  0  0  0  0  0  0  0
   32.5570   23.9470   -3.0499 H   0  0  0  0  0  0  0  0  0  0  0  0
   32.3707   25.4604   -2.1004 H   0  0  0  0  0  0  0  0  0  0  0  0
   32.3982   22.3464   -0.7179 H   0  0  0  0  0  0  0  0  0  0  0  0
   33.1799   23.9339   -1.0269 H   0  0  0  0  0  0  0  0  0  0  0  0
   29.5702   24.9747   -6.6645 H   0  0  0  0  0  0  0  0  0  0  0  0
   29.1942   26.1148   -5.3282 H   0  0  0  0  0  0  0  0  0  0  0  0
   32.1191   25.9576   -6.0191 H   0  0  0  0  0  0  0  0  0  0  0  0
   31.1023   27.4085   -5.7236 H   0  0  0  0  0  0  0  0  0  0  0  0
   30.5867   26.0801   -3.4557 H   0  0  0  0  0  0  0  0  0  0  0  0
   30.5020   20.4983    1.3618 H   0  0  0  0  0  0  0  0  0  0  0  0
   30.8427   18.4407    0.5512 H   0  0  0  0  0  0  0  0  0  0  0  0
   33.1133   18.2511   -0.9105 H   0  0  0  0  0  0  0  0  0  0  0  0
   32.8814   20.0323   -0.8885 H   0  0  0  0  0  0  0  0  0  0  0  0
   30.5495   19.7480   -1.6268 H   0  0  0  0  0  0  0  0  0  0  0  0
   30.7581   17.9639   -1.6231 H   0  0  0  0  0  0  0  0  0  0  0  0
   31.9950   19.2273    3.1348 H   0  0  0  0  0  0  0  0  0  0  0  0
   33.2071   18.4085    4.8589 H   0  0  0  0  0  0  0  0  0  0  0  0
   33.4496   16.0278    5.0235 H   0  0  0  0  0  0  0  0  0  0  0  0
   33.3097   15.8382    3.2427 H   0  0  0  0  0  0  0  0  0  0  0  0
   31.1282   17.6902    5.7599 H   0  0  0  0  0  0  0  0  0  0  0  0
   31.4115   14.5524    2.8462 H   0  0  0  0  0  0  0  0  0  0  0  0
   28.7019   17.2521    5.9705 H   0  0  0  0  0  0  0  0  0  0  0  0
   29.0101   14.0987    3.0941 H   0  0  0  0  0  0  0  0  0  0  0  0
   26.9936   15.9359    5.2677 H   0  0  0  0  0  0  0  0  0  0  0  0
   34.7845   19.5049    2.4568 H   0  0  0  0  0  0  0  0  0  0  0  0
   37.4331   18.7495    3.3624 H   0  0  0  0  0  0  0  0  0  0  0  0
   37.0156   19.9308    2.0752 H   0  0  0  0  0  0  0  0  0  0  0  0
   35.5424   17.0150    1.2528 H   0  0  0  0  0  0  0  0  0  0  0  0
   37.8182   15.5383    0.2818 H   0  0  0  0  0  0  0  0  0  0  0  0
   38.4199   16.9001   -1.7510 O   0  0  0  0  0  0  0  0  0  0  0  0
   34.8797   15.4219   -0.5611 H   0  0  0  0  0  0  0  0  0  0  0  0
   35.4155   13.2223   -1.5825 H   0  0  0  0  0  0  0  0  0  0  0  0
   37.1583   13.4936   -1.2423 H   0  0  0  0  0  0  0  0  0  0  0  0
   36.2896   14.5674   -2.3907 H   0  0  0  0  0  0  0  0  0  0  0  0
   35.3475   14.8430    1.7998 H   0  0  0  0  0  0  0  0  0  0  0  0
   36.5369   13.6122    1.2548 H   0  0  0  0  0  0  0  0  0  0  0  0
   34.7971   13.4205    0.8511 H   0  0  0  0  0  0  0  0  0  0  0  0
  1  2  2  0  0  0  0
  1  3  1  0  0  0  0
  3  4  2  0  0  0  0
  3  8  1  0  0  0  0
  4  5  1  0  0  0  0
  4 76  1  0  0  0  0
  5  6  2  0  0  0  0
  5 77  1  0  0  0  0
  6 78  1  0  0  0  0
  7  6  1  0  0  0  0
  7 79  1  0  0  0  0
  8  7  2  0  0  0  0
  8 80  1  0  0  0  0
  9  1  1  0  0  0  0
  9 81  1  0  0  0  0
 10  9  1  0  0  0  0
 10 82  1  0  0  0  0
 10 83  1  0  0  0  0
 11 10  1  0  0  0  0
 11 12  2  0  0  0  0
 13 11  1  0  0  0  0
 13 84  1  0  0  0  0
 14 13  1  0  0  0  0
 14 17  1  0  0  0  0
 14 85  1  1  0  0  0
 15 14  1  0  0  0  0
 15 16  2  0  0  0  0
 17 18  1  0  0  0  0
 17 19  1  0  0  0  0
 17 86  1  0  0  0  0
 18 87  1  0  0  0  0
 18 88  1  0  0  0  0
 18 89  1  0  0  0  0
 19 90  1  0  0  0  0
 19 91  1  0  0  0  0
 19 92  1  0  0  0  0
 20 15  1  0  0  0  0
 20 93  1  0  0  0  0
 21 20  1  0  0  0  0
 21 24  1  0  0  0  0
 21 94  1  6  0  0  0
 22 21  1  0  0  0  0
 22 23  2  0  0  0  0
 24 25  1  0  0  0  0
 24 95  1  0  0  0  0
 24 96  1  0  0  0  0
 25 26  1  0  0  0  0
 25 27  1  0  0  0  0
 25 97  1  0  0  0  0
 26 98  1  0  0  0  0
 26 99  1  0  0  0  0
 26100  1  0  0  0  0
 27101  1  0  0  0  0
 27102  1  0  0  0  0
 27103  1  0  0  0  0
 28 30  2  0  0  0  0
 28 44  1  0  0  0  0
 29 22  1  0  0  0  0
 29104  1  0  0  0  0
 31 28  1  0  0  0  0
 31 29  1  0  0  0  0
 31105  1  1  0  0  0
 32 31  1  0  0  0  0
 32106  1  0  0  0  0
 32107  1  0  0  0  0
 33 35  1  0  0  0  0
 33108  1  0  0  0  0
 33109  1  0  0  0  0
 34 33  1  0  0  0  0
 34110  1  0  0  0  0
 34111  1  0  0  0  0
 35 32  1  0  0  0  0
 35112  1  0  0  0  0
 35113  1  0  0  0  0
 36 37  1  0  0  0  0
 36114  1  0  0  0  0
 36115  1  0  0  0  0
 37 38  1  0  0  0  0
 37116  1  0  0  0  0
 37117  1  0  0  0  0
 38 42  1  0  0  0  0
 38 43  2  0  0  0  0
 39 36  1  0  0  0  0
 39 40  2  0  0  0  0
 39 41  1  0  0  0  0
 41 34  1  0  0  0  0
 41118  1  0  0  0  0
 44 45  1  0  0  0  0
 44119  1  0  0  0  0
 45 46  1  0  0  0  0
 45 48  1  0  0  0  0
 45120  1  6  0  0  0
 46 47  2  0  0  0  0
 46 53  1  0  0  0  0
 48 49  1  0  0  0  0
 48121  1  0  0  0  0
 48122  1  0  0  0  0
 49 50  1  0  0  0  0
 49123  1  0  0  0  0
 49124  1  0  0  0  0
 50 51  1  0  0  0  0
 50 52  2  0  0  0  0
 53 54  1  0  0  0  0
 53125  1  0  0  0  0
 54 55  1  0  0  0  0
 54 57  1  0  0  0  0
 54126  1  1  0  0  0
 55 56  2  0  0  0  0
 55 65  1  0  0  0  0
 57 58  1  0  0  0  0
 57127  1  0  0  0  0
 57128  1  0  0  0  0
 58 59  2  0  0  0  0
 58 60  1  0  0  0  0
 59 61  1  0  0  0  0
 59129  1  0  0  0  0
 60 62  2  0  0  0  0
 60130  1  0  0  0  0
 61 63  2  0  0  0  0
 61131  1  0  0  0  0
 62 63  1  0  0  0  0
 62132  1  0  0  0  0
 63 64  1  0  0  0  0
 64133  1  0  0  0  0
 65 66  1  0  0  0  0
 65134  1  0  0  0  0
 66 67  1  0  0  0  0
 66135  1  0  0  0  0
 66136  1  0  0  0  0
 67 68  2  0  0  0  0
 67 69  1  0  0  0  0
 69 70  1  0  0  0  0
 69137  1  0  0  0  0
 70 71  1  0  0  0  0
 70 73  1  0  0  0  0
 70138  1  1  0  0  0
 71 72  1  0  0  0  0
 71139  2  0  0  0  0
 73 74  1  0  0  0  0
 73 75  1  0  0  0  0
 73140  1  0  0  0  0
 74141  1  0  0  0  0
 74142  1  0  0  0  0
 74143  1  0  0  0  0
 75144  1  0  0  0  0
 75145  1  0  0  0  0
 75146  1  0  0  0  0
M  CHG  3  42  -1  51  -1  72  -1
M  END
