4utr_ligand
 OpenBabel08222323353D

137138  0  0  1  0  0  0  0  0999 V2000
   32.9800   25.9770   12.7470 C   0  0  0  0  0  0  0  0  0  0  0  0
   32.3870   27.0540   12.7670 O   0  0  0  0  0  0  0  0  0  0  0  0
   33.8940   25.6840   13.7690 C   0  0  0  0  0  0  0  0  0  0  0  0
   34.9480   24.7720   13.5920 C   0  0  0  0  0  0  0  0  0  0  0  0
   35.8210   24.5180   14.6440 C   0  0  0  0  0  0  0  0  0  0  0  0
   35.6240   25.1790   15.8640 C   0  0  0  0  0  0  0  0  0  0  0  0
   34.5730   26.0820   16.0490 C   0  0  0  0  0  0  0  0  0  0  0  0
   33.7070   26.3270   14.9970 C   0  0  0  0  0  0  0  0  0  0  0  0
   32.7570   25.0430   11.7880 N   0  0  0  0  0  0  0  0  0  0  0  0
   31.7390   25.2750   10.7210 C   0  0  0  0  0  0  0  0  0  0  0  0
   31.9770   24.1950    9.7050 C   0  0  0  0  0  0  0  0  0  0  0  0
   33.0910   23.6550    9.5690 O   0  0  0  0  0  0  0  0  0  0  0  0
   30.9090   23.8620    8.9910 N   0  0  0  0  0  0  0  0  0  0  0  0
   30.9710   22.7500    8.0620 C   0  0  2  0  0  0  0  0  0  0  0  0
   31.8180   23.1220    6.8440 C   0  0  0  0  0  0  0  0  0  0  0  0
   31.4890   24.0280    6.1110 O   0  0  0  0  0  0  0  0  0  0  0  0
   29.5760   22.2830    7.5910 C   0  0  0  0  0  0  0  0  0  0  0  0
   29.7270   21.0130    6.7520 C   0  0  0  0  0  0  0  0  0  0  0  0
   28.6340   22.0580    8.7720 C   0  0  0  0  0  0  0  0  0  0  0  0
   32.9270   22.4280    6.6570 N   0  0  0  0  0  0  0  0  0  0  0  0
   33.7130   22.5660    5.4500 C   0  0  2  0  0  0  0  0  0  0  0  0
   32.9120   22.1130    4.2540 C   0  0  0  0  0  0  0  0  0  0  0  0
   32.3640   21.0170    4.2270 O   0  0  0  0  0  0  0  0  0  0  0  0
   34.9890   21.7440    5.5270 C   0  0  0  0  0  0  0  0  0  0  0  0
   36.3030   22.5020    5.7130 C   0  0  0  0  0  0  0  0  0  0  0  0
   36.2030   23.7000    6.6470 C   0  0  0  0  0  0  0  0  0  0  0  0
   37.3540   21.5190    6.2100 C   0  0  0  0  0  0  0  0  0  0  0  0
   32.8420   22.9880    3.2680 N   0  0  0  0  0  0  0  0  0  0  0  0
   32.2660   22.6690    1.9690 C   0  0  2  0  0  0  0  0  0  0  0  0
   32.7270   21.2710    1.5380 C   0  0  0  0  0  0  0  0  0  0  0  0
   33.9130   21.0230    1.3600 O   0  0  0  0  0  0  0  0  0  0  0  0
   32.7890   23.7490    0.9890 C   0  0  0  0  0  0  0  0  0  0  0  0
   32.5930   23.3370   -0.4430 C   0  0  0  0  0  0  0  0  0  0  0  0
   31.2340   23.7880   -0.9620 C   0  0  0  0  0  0  0  0  0  0  0  0
   31.7920   24.6880   -2.0300 C   0  0  0  0  0  0  0  0  0  0  0  0
   30.8230   24.9690   -3.0270 N   0  3  0  0  0  0  0  0  0  0  0  0
   31.7810   20.3690    1.3610 N   0  0  0  0  0  0  0  0  0  0  0  0
   32.0830   19.0180    0.8750 C   0  0  2  0  0  0  0  0  0  0  0  0
   32.9960   18.2400    1.8220 C   0  0  0  0  0  0  0  0  0  0  0  0
   33.8140   17.4120    1.3970 O   0  0  0  0  0  0  0  0  0  0  0  0
   32.6850   19.0770   -0.5200 C   0  0  0  0  0  0  0  0  0  0  0  0
   31.6730   18.7770   -1.5850 C   0  0  0  0  0  0  0  0  0  0  0  0
   32.3480   18.5640   -2.9030 C   0  0  0  0  0  0  0  0  0  0  0  0
   33.1630   17.6090   -3.0240 O   0  5  0  0  0  0  0  0  0  0  0  0
   32.0690   19.3710   -3.8060 O   0  0  0  0  0  0  0  0  0  0  0  0
   32.8350   18.5320    3.1120 N   0  0  0  0  0  0  0  0  0  0  0  0
   33.6270   17.9350    4.1670 C   0  0  2  0  0  0  0  0  0  0  0  0
   35.1600   18.1490    4.0110 C   0  0  0  0  0  0  0  0  0  0  0  0
   35.9460   17.4510    4.6560 O   0  0  0  0  0  0  0  0  0  0  0  0
   33.2720   16.4530    4.2610 C   0  0  0  0  0  0  0  0  0  0  0  0
   31.7800   16.1640    4.4090 C   0  0  0  0  0  0  0  0  0  0  0  0
   31.0120   16.7910    5.3820 C   0  0  0  0  0  0  0  0  0  0  0  0
   31.1540   15.2180    3.6160 C   0  0  0  0  0  0  0  0  0  0  0  0
   29.6650   16.5030    5.5350 C   0  0  0  0  0  0  0  0  0  0  0  0
   29.8040   14.9130    3.7670 C   0  0  0  0  0  0  0  0  0  0  0  0
   29.0550   15.5650    4.7170 C   0  0  0  0  0  0  0  0  0  0  0  0
   27.7040   15.2480    4.8610 O   0  0  0  0  0  0  0  0  0  0  0  0
   35.5680   19.1380    3.2100 N   0  0  0  0  0  0  0  0  0  0  0  0
   36.9600   19.3210    2.8460 C   0  0  0  0  0  0  0  0  0  0  0  0
   37.5820   18.2600    1.9280 C   0  0  0  0  0  0  0  0  0  0  0  0
   38.7810   18.2980    1.6990 O   0  0  0  0  0  0  0  0  0  0  0  0
   36.7900   17.3260    1.3890 N   0  0  0  0  0  0  0  0  0  0  0  0
   37.3290   16.1530    0.6300 C   0  0  2  0  0  0  0  0  0  0  0  0
   38.2520   16.5530   -0.5240 C   0  0  0  0  0  0  0  0  0  0  0  0
   38.1360   17.6570   -1.0580 O   0  5  0  0  0  0  0  0  0  0  0  0
   36.1870   15.1860    0.1350 C   0  0  0  0  0  0  0  0  0  0  0  0
   36.0290   15.1560   -1.3940 C   0  0  0  0  0  0  0  0  0  0  0  0
   36.3910   13.7800    0.7060 C   0  0  0  0  0  0  0  0  0  0  0  0
   35.0799   24.2692   12.6407 H   0  0  0  0  0  0  0  0  0  0  0  0
   36.6411   23.8197   14.5224 H   0  0  0  0  0  0  0  0  0  0  0  0
   36.3042   24.9850   16.6854 H   0  0  0  0  0  0  0  0  0  0  0  0
   34.4382   26.5825   17.0011 H   0  0  0  0  0  0  0  0  0  0  0  0
   32.8822   27.0186   15.1253 H   0  0  0  0  0  0  0  0  0  0  0  0
   33.2799   24.1907   11.7962 H   0  0  0  0  0  0  0  0  0  0  0  0
   31.8757   26.2677   10.2673 H   0  0  0  0  0  0  0  0  0  0  0  0
   30.7227   25.1976   11.1347 H   0  0  0  0  0  0  0  0  0  0  0  0
   30.0593   24.3792    9.0938 H   0  0  0  0  0  0  0  0  0  0  0  0
   31.4543   21.9076    8.5785 H   0  0  0  0  0  0  0  0  0  0  0  0
   29.1427   23.0698    6.9560 H   0  0  0  0  0  0  0  0  0  0  0  0
   28.7356   20.6767    6.4143 H   0  0  0  0  0  0  0  0  0  0  0  0
   30.1939   20.2247    7.3608 H   0  0  0  0  0  0  0  0  0  0  0  0
   30.3600   21.2243    5.8776 H   0  0  0  0  0  0  0  0  0  0  0  0
   28.5470   22.9875    9.3538 H   0  0  0  0  0  0  0  0  0  0  0  0
   29.0349   21.2598    9.4140 H   0  0  0  0  0  0  0  0  0  0  0  0
   27.6417   21.7648    8.3988 H   0  0  0  0  0  0  0  0  0  0  0  0
   33.2303   21.7922    7.3668 H   0  0  0  0  0  0  0  0  0  0  0  0
   33.9797   23.6257    5.3239 H   0  0  0  0  0  0  0  0  0  0  0  0
   35.0687   21.1698    4.5921 H   0  0  0  0  0  0  0  0  0  0  0  0
   34.8847   21.0513    6.3751 H   0  0  0  0  0  0  0  0  0  0  0  0
   36.6160   22.8793    4.7283 H   0  0  0  0  0  0  0  0  0  0  0  0
   37.1863   24.1868    6.7255 H   0  0  0  0  0  0  0  0  0  0  0  0
   35.8805   23.3625    7.6430 H   0  0  0  0  0  0  0  0  0  0  0  0
   35.4701   24.4163    6.2474 H   0  0  0  0  0  0  0  0  0  0  0  0
   37.4097   20.6627    5.5218 H   0  0  0  0  0  0  0  0  0  0  0  0
   37.0789   21.1648    7.2144 H   0  0  0  0  0  0  0  0  0  0  0  0
   38.3328   22.0192    6.2528 H   0  0  0  0  0  0  0  0  0  0  0  0
   33.1998   23.9094    3.4196 H   0  0  0  0  0  0  0  0  0  0  0  0
   31.1674   22.6975    2.0160 H   0  0  0  0  0  0  0  0  0  0  0  0
   33.8622   23.9071    1.1714 H   0  0  0  0  0  0  0  0  0  0  0  0
   32.2443   24.6877    1.1682 H   0  0  0  0  0  0  0  0  0  0  0  0
   32.6591   22.2413   -0.5139 H   0  0  0  0  0  0  0  0  0  0  0  0
   33.3821   23.7926   -1.0592 H   0  0  0  0  0  0  0  0  0  0  0  0
   30.6456   24.3312   -0.2078 H   0  0  0  0  0  0  0  0  0  0  0  0
   30.6342   22.9606   -1.3689 H   0  0  0  0  0  0  0  0  0  0  0  0
   32.6556   24.1941   -2.4992 H   0  0  0  0  0  0  0  0  0  0  0  0
   32.1157   25.6328   -1.5690 H   0  0  0  0  0  0  0  0  0  0  0  0
   31.2260   25.5726   -3.7265 H   0  0  0  0  0  0  0  0  0  0  0  0
   30.0298   25.4263   -2.6053 H   0  0  0  0  0  0  0  0  0  0  0  0
   30.5246   24.1079   -3.4577 H   0  0  0  0  0  0  0  0  0  0  0  0
   30.8325   20.6125    1.5635 H   0  0  0  0  0  0  0  0  0  0  0  0
   31.1315   18.4700    0.8097 H   0  0  0  0  0  0  0  0  0  0  0  0
   33.4987   18.3399   -0.5865 H   0  0  0  0  0  0  0  0  0  0  0  0
   33.0894   20.0859   -0.6893 H   0  0  0  0  0  0  0  0  0  0  0  0
   30.9739   19.6221   -1.6686 H   0  0  0  0  0  0  0  0  0  0  0  0
   31.1179   17.8676   -1.3113 H   0  0  0  0  0  0  0  0  0  0  0  0
   32.1319   19.1968    3.3643 H   0  0  0  0  0  0  0  0  0  0  0  0
   33.3327   18.4147    5.1121 H   0  0  0  0  0  0  0  0  0  0  0  0
   33.7913   16.0307    5.1339 H   0  0  0  0  0  0  0  0  0  0  0  0
   33.6284   15.9563    3.3465 H   0  0  0  0  0  0  0  0  0  0  0  0
   31.4760   17.5209    6.0354 H   0  0  0  0  0  0  0  0  0  0  0  0
   31.7301   14.7009    2.8572 H   0  0  0  0  0  0  0  0  0  0  0  0
   29.0866   17.0130    6.2969 H   0  0  0  0  0  0  0  0  0  0  0  0
   29.3439   14.1616    3.1355 H   0  0  0  0  0  0  0  0  0  0  0  0
   27.3272   15.7792    5.5525 H   0  0  0  0  0  0  0  0  0  0  0  0
   34.8881   19.7757    2.8481 H   0  0  0  0  0  0  0  0  0  0  0  0
   37.5470   19.3413    3.7761 H   0  0  0  0  0  0  0  0  0  0  0  0
   37.0457   20.2924    2.3371 H   0  0  0  0  0  0  0  0  0  0  0  0
   35.7998   17.4147    1.4972 H   0  0  0  0  0  0  0  0  0  0  0  0
   37.9440   15.5806    1.3400 H   0  0  0  0  0  0  0  0  0  0  0  0
   39.1340   15.7496   -0.9293 O   0  0  0  0  0  0  0  0  0  0  0  0
   35.2413   15.5715    0.5436 H   0  0  0  0  0  0  0  0  0  0  0  0
   35.2183   14.4638   -1.6653 H   0  0  0  0  0  0  0  0  0  0  0  0
   36.9694   14.8172   -1.8532 H   0  0  0  0  0  0  0  0  0  0  0  0
   35.7862   16.1654   -1.7574 H   0  0  0  0  0  0  0  0  0  0  0  0
   36.5000   13.8404    1.7989 H   0  0  0  0  0  0  0  0  0  0  0  0
   37.2984   13.3357    0.2711 H   0  0  0  0  0  0  0  0  0  0  0  0
   35.5212   13.1539    0.4583 H   0  0  0  0  0  0  0  0  0  0  0  0
  1  2  2  0  0  0  0
  1  3  1  0  0  0  0
  1  9  1  0  0  0  0
  3  4  2  0  0  0  0
  3  8  1  0  0  0  0
  4  5  1  0  0  0  0
  4 69  1  0  0  0  0
  5  6  2  0  0  0  0
  5 70  1  0  0  0  0
  6  7  1  0  0  0  0
  6 71  1  0  0  0  0
  7  8  2  0  0  0  0
  7 72  1  0  0  0  0
  8 73  1  0  0  0  0
  9 10  1  0  0  0  0
  9 74  1  0  0  0  0
 10 11  1  0  0  0  0
 10 75  1  0  0  0  0
 10 76  1  0  0  0  0
 11 12  2  0  0  0  0
 11 13  1  0  0  0  0
 13 14  1  0  0  0  0
 13 77  1  0  0  0  0
 14 15  1  0  0  0  0
 14 17  1  0  0  0  0
 14 78  1  1  0  0  0
 15 16  2  0  0  0  0
 15 20  1  0  0  0  0
 17 18  1  0  0  0  0
 17 19  1  0  0  0  0
 17 79  1  0  0  0  0
 18 80  1  0  0  0  0
 18 81  1  0  0  0  0
 18 82  1  0  0  0  0
 19 83  1  0  0  0  0
 19 84  1  0  0  0  0
 19 85  1  0  0  0  0
 20 21  1  0  0  0  0
 20 86  1  0  0  0  0
 21 22  1  0  0  0  0
 21 24  1  0  0  0  0
 21 87  1  6  0  0  0
 22 23  2  0  0  0  0
 22 28  1  0  0  0  0
 24 25  1  0  0  0  0
 24 88  1  0  0  0  0
 24 89  1  0  0  0  0
 25 26  1  0  0  0  0
 25 27  1  0  0  0  0
 25 90  1  0  0  0  0
 26 91  1  0  0  0  0
 26 92  1  0  0  0  0
 26 93  1  0  0  0  0
 27 94  1  0  0  0  0
 27 95  1  0  0  0  0
 27 96  1  0  0  0  0
 28 29  1  0  0  0  0
 28 97  1  0  0  0  0
 29 30  1  0  0  0  0
 29 32  1  0  0  0  0
 29 98  1  1  0  0  0
 30 31  2  0  0  0  0
 30 37  1  0  0  0  0
 32 33  1  0  0  0  0
 32 99  1  0  0  0  0
 32100  1  0  0  0  0
 33 34  1  0  0  0  0
 33101  1  0  0  0  0
 33102  1  0  0  0  0
 34 35  1  0  0  0  0
 34103  1  0  0  0  0
 34104  1  0  0  0  0
 35 36  1  0  0  0  0
 35105  1  0  0  0  0
 35106  1  0  0  0  0
 36107  1  0  0  0  0
 36108  1  0  0  0  0
 36109  1  0  0  0  0
 37 38  1  0  0  0  0
 37110  1  0  0  0  0
 38 39  1  0  0  0  0
 38 41  1  0  0  0  0
 38111  1  6  0  0  0
 39 40  2  0  0  0  0
 39 46  1  0  0  0  0
 41 42  1  0  0  0  0
 41112  1  0  0  0  0
 41113  1  0  0  0  0
 42 43  1  0  0  0  0
 42114  1  0  0  0  0
 42115  1  0  0  0  0
 43 44  1  0  0  0  0
 43 45  2  0  0  0  0
 46 47  1  0  0  0  0
 46116  1  0  0  0  0
 47 48  1  0  0  0  0
 47 50  1  0  0  0  0
 47117  1  1  0  0  0
 48 49  2  0  0  0  0
 48 58  1  0  0  0  0
 50 51  1  0  0  0  0
 50118  1  0  0  0  0
 50119  1  0  0  0  0
 51 52  2  0  0  0  0
 51 53  1  0  0  0  0
 52 54  1  0  0  0  0
 52120  1  0  0  0  0
 53 55  2  0  0  0  0
 53121  1  0  0  0  0
 54 56  2  0  0  0  0
 54122  1  0  0  0  0
 55 56  1  0  0  0  0
 55123  1  0  0  0  0
 56 57  1  0  0  0  0
 57124  1  0  0  0  0
 58 59  1  0  0  0  0
 58125  1  0  0  0  0
 59 60  1  0  0  0  0
 59126  1  0  0  0  0
 59127  1  0  0  0  0
 60 61  2  0  0  0  0
 60 62  1  0  0  0  0
 62 63  1  0  0  0  0
 62128  1  0  0  0  0
 63 64  1  0  0  0  0
 63 66  1  0  0  0  0
 63129  1  1  0  0  0
 64 65  1  0  0  0  0
 64130  2  0  0  0  0
 66 67  1  0  0  0  0
 66 68  1  0  0  0  0
 66131  1  0  0  0  0
 67132  1  0  0  0  0
 67133  1  0  0  0  0
 67134  1  0  0  0  0
 68135  1  0  0  0  0
 68136  1  0  0  0  0
 68137  1  0  0  0  0
M  CHG  3  36   1  44  -1  65  -1
M  END
