4utv_ligand
 OpenBabel08222323353D

137138  0  0  1  0  0  0  0  0999 V2000
   35.7580   25.6680   11.2650 C   0  0  0  0  0  0  0  0  0  0  0  0
   35.0890   26.6990   11.3980 O   0  0  0  0  0  0  0  0  0  0  0  0
   36.6480   25.3100   12.2680 C   0  0  0  0  0  0  0  0  0  0  0  0
   37.6900   24.4290   12.0090 C   0  0  0  0  0  0  0  0  0  0  0  0
   38.5220   24.0610   13.0460 C   0  0  0  0  0  0  0  0  0  0  0  0
   38.2950   24.5860   14.3150 C   0  0  0  0  0  0  0  0  0  0  0  0
   37.2470   25.4560   14.5680 C   0  0  0  0  0  0  0  0  0  0  0  0
   36.4140   25.8150   13.5360 C   0  0  0  0  0  0  0  0  0  0  0  0
   35.6010   24.7450   10.2590 N   0  0  0  0  0  0  0  0  0  0  0  0
   34.6090   24.9510    9.1630 C   0  0  0  0  0  0  0  0  0  0  0  0
   34.7680   23.8120    8.2040 C   0  0  0  0  0  0  0  0  0  0  0  0
   35.8210   23.1930    8.0870 O   0  0  0  0  0  0  0  0  0  0  0  0
   33.6690   23.5070    7.5320 N   0  0  0  0  0  0  0  0  0  0  0  0
   33.6200   22.4460    6.5590 C   0  0  2  0  0  0  0  0  0  0  0  0
   34.2950   22.8380    5.2600 C   0  0  0  0  0  0  0  0  0  0  0  0
   33.8890   23.8050    4.6210 O   0  0  0  0  0  0  0  0  0  0  0  0
   32.1810   22.1130    6.1890 C   0  0  0  0  0  0  0  0  0  0  0  0
   32.1670   20.8370    5.3570 C   0  0  0  0  0  0  0  0  0  0  0  0
   31.3170   21.9910    7.4390 C   0  0  0  0  0  0  0  0  0  0  0  0
   35.3280   22.0940    4.8890 N   0  0  0  0  0  0  0  0  0  0  0  0
   36.0080   22.2520    3.6070 C   0  0  2  0  0  0  0  0  0  0  0  0
   35.0810   21.7660    2.4960 C   0  0  0  0  0  0  0  0  0  0  0  0
   34.4060   20.7720    2.6920 O   0  0  0  0  0  0  0  0  0  0  0  0
   37.2780   21.3870    3.5960 C   0  0  0  0  0  0  0  0  0  0  0  0
   38.3930   21.8740    4.5160 C   0  0  0  0  0  0  0  0  0  0  0  0
   39.4300   20.7800    4.7100 C   0  0  0  0  0  0  0  0  0  0  0  0
   39.0410   23.1480    3.9870 C   0  0  0  0  0  0  0  0  0  0  0  0
   35.0620   22.4260    1.3320 N   0  0  0  0  0  0  0  0  0  0  0  0
   34.1930   21.9540    0.2460 C   0  0  2  0  0  0  0  0  0  0  0  0
   34.7960   20.6790   -0.2580 C   0  0  0  0  0  0  0  0  0  0  0  0
   35.9990   20.5290   -0.2620 O   0  0  0  0  0  0  0  0  0  0  0  0
   33.7730   22.9370   -0.8750 C   0  0  0  0  0  0  0  0  0  0  0  0
   34.9380   23.5440   -1.6760 C   0  0  0  0  0  0  0  0  0  0  0  0
   34.2010   24.3730   -2.7590 C   0  0  0  0  0  0  0  0  0  0  0  0
   34.4690   23.5910   -3.9910 C   0  0  0  0  0  0  0  0  0  0  0  0
   34.5660   24.3850   -5.2310 N   0  3  0  0  0  0  0  0  0  0  0  0
   33.9350   19.7460   -0.6500 N   0  0  0  0  0  0  0  0  0  0  0  0
   34.3350   18.3770   -1.0080 C   0  0  2  0  0  0  0  0  0  0  0  0
   35.0930   17.6670    0.1120 C   0  0  0  0  0  0  0  0  0  0  0  0
   35.7320   16.6600   -0.1330 O   0  0  0  0  0  0  0  0  0  0  0  0
   35.2260   18.3830   -2.2190 C   0  0  0  0  0  0  0  0  0  0  0  0
   34.7930   19.3750   -3.2600 C   0  0  0  0  0  0  0  0  0  0  0  0
   33.7890   18.7800   -4.2030 C   0  0  0  0  0  0  0  0  0  0  0  0
   33.0110   17.8910   -3.7390 O   0  5  0  0  0  0  0  0  0  0  0  0
   33.8210   19.2010   -5.3940 O   0  0  0  0  0  0  0  0  0  0  0  0
   35.0070   18.2030    1.3300 N   0  0  0  0  0  0  0  0  0  0  0  0
   35.6430   17.5970    2.4920 C   0  0  2  0  0  0  0  0  0  0  0  0
   37.1430   17.6530    2.3340 C   0  0  0  0  0  0  0  0  0  0  0  0
   37.8500   16.8620    2.9420 O   0  0  0  0  0  0  0  0  0  0  0  0
   35.2170   16.1380    2.6650 C   0  0  0  0  0  0  0  0  0  0  0  0
   33.7430   15.9340    2.9290 C   0  0  0  0  0  0  0  0  0  0  0  0
   33.0830   16.6430    3.9270 C   0  0  0  0  0  0  0  0  0  0  0  0
   33.0230   15.0190    2.1950 C   0  0  0  0  0  0  0  0  0  0  0  0
   31.7450   16.4380    4.1880 C   0  0  0  0  0  0  0  0  0  0  0  0
   31.6900   14.8000    2.4430 C   0  0  0  0  0  0  0  0  0  0  0  0
   31.0530   15.5170    3.4400 C   0  0  0  0  0  0  0  0  0  0  0  0
   29.7090   15.2940    3.6650 O   0  0  0  0  0  0  0  0  0  0  0  0
   37.6130   18.5790    1.5020 N   0  0  0  0  0  0  0  0  0  0  0  0
   39.0340   18.7470    1.2480 C   0  0  0  0  0  0  0  0  0  0  0  0
   39.5490   17.6980    0.2830 C   0  0  0  0  0  0  0  0  0  0  0  0
   40.7380   17.6400    0.0260 O   0  0  0  0  0  0  0  0  0  0  0  0
   38.6660   16.8590   -0.2540 N   0  0  0  0  0  0  0  0  0  0  0  0
   39.0990   15.8000   -1.1860 C   0  0  2  0  0  0  0  0  0  0  0  0
   38.9920   16.2070   -2.6660 C   0  0  0  0  0  0  0  0  0  0  0  0
   39.2890   17.3450   -3.0440 O   0  5  0  0  0  0  0  0  0  0  0  0
   38.2940   14.4930   -0.9840 C   0  0  0  0  0  0  0  0  0  0  0  0
   38.2620   13.6780   -2.2800 C   0  0  0  0  0  0  0  0  0  0  0  0
   38.8610   13.6850    0.1840 C   0  0  0  0  0  0  0  0  0  0  0  0
   37.8466   24.0377   11.0103 H   0  0  0  0  0  0  0  0  0  0  0  0
   39.3415   23.3723   12.8749 H   0  0  0  0  0  0  0  0  0  0  0  0
   38.9562   24.3065   15.1273 H   0  0  0  0  0  0  0  0  0  0  0  0
   37.0865   25.8479   15.5659 H   0  0  0  0  0  0  0  0  0  0  0  0
   35.5819   26.4869   13.7126 H   0  0  0  0  0  0  0  0  0  0  0  0
   36.1632   23.9180   10.2613 H   0  0  0  0  0  0  0  0  0  0  0  0
   34.8049   25.9049    8.6514 H   0  0  0  0  0  0  0  0  0  0  0  0
   33.5888   24.9582    9.5741 H   0  0  0  0  0  0  0  0  0  0  0  0
   32.8382   24.0352    7.7072 H   0  0  0  0  0  0  0  0  0  0  0  0
   34.1137   21.5581    6.9807 H   0  0  0  0  0  0  0  0  0  0  0  0
   31.7774   22.9316    5.5750 H   0  0  0  0  0  0  0  0  0  0  0  0
   31.1307   20.5882    5.0847 H   0  0  0  0  0  0  0  0  0  0  0  0
   32.6002   20.0127    5.9425 H   0  0  0  0  0  0  0  0  0  0  0  0
   32.7599   20.9887    4.4430 H   0  0  0  0  0  0  0  0  0  0  0  0
   31.3577   22.9326    8.0062 H   0  0  0  0  0  0  0  0  0  0  0  0
   31.6929   21.1689    8.0658 H   0  0  0  0  0  0  0  0  0  0  0  0
   30.2770   21.7835    7.1471 H   0  0  0  0  0  0  0  0  0  0  0  0
   35.6574   21.3901    5.5183 H   0  0  0  0  0  0  0  0  0  0  0  0
   36.2697   23.3084    3.4475 H   0  0  0  0  0  0  0  0  0  0  0  0
   37.6681   21.3653    2.5677 H   0  0  0  0  0  0  0  0  0  0  0  0
   37.0006   20.3683    3.9045 H   0  0  0  0  0  0  0  0  0  0  0  0
   37.9492   22.1030    5.4961 H   0  0  0  0  0  0  0  0  0  0  0  0
   40.2272   21.1442    5.3747 H   0  0  0  0  0  0  0  0  0  0  0  0
   39.8613   20.5066    3.7357 H   0  0  0  0  0  0  0  0  0  0  0  0
   38.9521   19.8974    5.1601 H   0  0  0  0  0  0  0  0  0  0  0  0
   38.2717   23.9231    3.8552 H   0  0  0  0  0  0  0  0  0  0  0  0
   39.5219   22.9404    3.0197 H   0  0  0  0  0  0  0  0  0  0  0  0
   39.7970   23.5000    4.7043 H   0  0  0  0  0  0  0  0  0  0  0  0
   35.6355   23.2349    1.2025 H   0  0  0  0  0  0  0  0  0  0  0  0
   33.2436   21.6809    0.7297 H   0  0  0  0  0  0  0  0  0  0  0  0
   33.2102   23.7615   -0.4130 H   0  0  0  0  0  0  0  0  0  0  0  0
   33.1213   22.3962   -1.5769 H   0  0  0  0  0  0  0  0  0  0  0  0
   35.5600   22.7589   -2.1307 H   0  0  0  0  0  0  0  0  0  0  0  0
   35.5652   24.1870   -1.0410 H   0  0  0  0  0  0  0  0  0  0  0  0
   34.6156   25.3891   -2.8339 H   0  0  0  0  0  0  0  0  0  0  0  0
   33.1225   24.4314   -2.5508 H   0  0  0  0  0  0  0  0  0  0  0  0
   33.6538   22.8631   -4.1160 H   0  0  0  0  0  0  0  0  0  0  0  0
   35.4204   23.0561   -3.8543 H   0  0  0  0  0  0  0  0  0  0  0  0
   34.7484   23.7713   -6.0095 H   0  0  0  0  0  0  0  0  0  0  0  0
   35.3174   25.0515   -5.1454 H   0  0  0  0  0  0  0  0  0  0  0  0
   33.6985   24.8746   -5.3852 H   0  0  0  0  0  0  0  0  0  0  0  0
   32.9660   19.9870   -0.7043 H   0  0  0  0  0  0  0  0  0  0  0  0
   33.4235   17.8044   -1.2343 H   0  0  0  0  0  0  0  0  0  0  0  0
   35.2163   17.3782   -2.6666 H   0  0  0  0  0  0  0  0  0  0  0  0
   36.2489   18.6327   -1.9006 H   0  0  0  0  0  0  0  0  0  0  0  0
   35.6740   19.6986   -3.8336 H   0  0  0  0  0  0  0  0  0  0  0  0
   34.3417   20.2443   -2.7595 H   0  0  0  0  0  0  0  0  0  0  0  0
   34.4884   19.0496    1.4497 H   0  0  0  0  0  0  0  0  0  0  0  0
   35.3513   18.1619    3.3897 H   0  0  0  0  0  0  0  0  0  0  0  0
   35.7777   15.7162    3.5122 H   0  0  0  0  0  0  0  0  0  0  0  0
   35.4781   15.5941    1.7452 H   0  0  0  0  0  0  0  0  0  0  0  0
   33.6322   17.3720    4.5118 H   0  0  0  0  0  0  0  0  0  0  0  0
   33.5167   14.4614    1.4073 H   0  0  0  0  0  0  0  0  0  0  0  0
   31.2461   16.9957    4.9723 H   0  0  0  0  0  0  0  0  0  0  0  0
   31.1401   14.0694    1.8608 H   0  0  0  0  0  0  0  0  0  0  0  0
   29.4107   15.8526    4.3731 H   0  0  0  0  0  0  0  0  0  0  0  0
   36.9653   19.1808    1.0348 H   0  0  0  0  0  0  0  0  0  0  0  0
   39.5807   18.6587    2.1984 H   0  0  0  0  0  0  0  0  0  0  0  0
   39.2055   19.7447    0.8176 H   0  0  0  0  0  0  0  0  0  0  0  0
   37.6971   16.9475   -0.0229 H   0  0  0  0  0  0  0  0  0  0  0  0
   40.1566   15.5890   -0.9695 H   0  0  0  0  0  0  0  0  0  0  0  0
   38.5929   15.3614   -3.5106 O   0  0  0  0  0  0  0  0  0  0  0  0
   37.2585   14.7657   -0.7323 H   0  0  0  0  0  0  0  0  0  0  0  0
   37.6868   12.7544   -2.1182 H   0  0  0  0  0  0  0  0  0  0  0  0
   39.2896   13.4225   -2.5780 H   0  0  0  0  0  0  0  0  0  0  0  0
   37.7865   14.2715   -3.0748 H   0  0  0  0  0  0  0  0  0  0  0  0
   38.8657   14.3064    1.0916 H   0  0  0  0  0  0  0  0  0  0  0  0
   39.8889   13.3720   -0.0514 H   0  0  0  0  0  0  0  0  0  0  0  0
   38.2362   12.7954    0.3520 H   0  0  0  0  0  0  0  0  0  0  0  0
  1  2  2  0  0  0  0
  1  3  1  0  0  0  0
  1  9  1  0  0  0  0
  3  4  2  0  0  0  0
  3  8  1  0  0  0  0
  4  5  1  0  0  0  0
  4 69  1  0  0  0  0
  5  6  2  0  0  0  0
  5 70  1  0  0  0  0
  6  7  1  0  0  0  0
  6 71  1  0  0  0  0
  7  8  2  0  0  0  0
  7 72  1  0  0  0  0
  8 73  1  0  0  0  0
  9 10  1  0  0  0  0
  9 74  1  0  0  0  0
 10 11  1  0  0  0  0
 10 75  1  0  0  0  0
 10 76  1  0  0  0  0
 11 12  2  0  0  0  0
 11 13  1  0  0  0  0
 13 14  1  0  0  0  0
 13 77  1  0  0  0  0
 14 15  1  0  0  0  0
 14 17  1  0  0  0  0
 14 78  1  1  0  0  0
 15 16  2  0  0  0  0
 15 20  1  0  0  0  0
 17 18  1  0  0  0  0
 17 19  1  0  0  0  0
 17 79  1  0  0  0  0
 18 80  1  0  0  0  0
 18 81  1  0  0  0  0
 18 82  1  0  0  0  0
 19 83  1  0  0  0  0
 19 84  1  0  0  0  0
 19 85  1  0  0  0  0
 20 21  1  0  0  0  0
 20 86  1  0  0  0  0
 21 22  1  0  0  0  0
 21 24  1  0  0  0  0
 21 87  1  6  0  0  0
 22 23  2  0  0  0  0
 22 28  1  0  0  0  0
 24 25  1  0  0  0  0
 24 88  1  0  0  0  0
 24 89  1  0  0  0  0
 25 26  1  0  0  0  0
 25 27  1  0  0  0  0
 25 90  1  0  0  0  0
 26 91  1  0  0  0  0
 26 92  1  0  0  0  0
 26 93  1  0  0  0  0
 27 94  1  0  0  0  0
 27 95  1  0  0  0  0
 27 96  1  0  0  0  0
 28 29  1  0  0  0  0
 28 97  1  0  0  0  0
 29 30  1  0  0  0  0
 29 32  1  0  0  0  0
 29 98  1  1  0  0  0
 30 31  2  0  0  0  0
 30 37  1  0  0  0  0
 32 33  1  0  0  0  0
 32 99  1  0  0  0  0
 32100  1  0  0  0  0
 33 34  1  0  0  0  0
 33101  1  0  0  0  0
 33102  1  0  0  0  0
 34 35  1  0  0  0  0
 34103  1  0  0  0  0
 34104  1  0  0  0  0
 35 36  1  0  0  0  0
 35105  1  0  0  0  0
 35106  1  0  0  0  0
 36107  1  0  0  0  0
 36108  1  0  0  0  0
 36109  1  0  0  0  0
 37 38  1  0  0  0  0
 37110  1  0  0  0  0
 38 39  1  0  0  0  0
 38 41  1  0  0  0  0
 38111  1  6  0  0  0
 39 40  2  0  0  0  0
 39 46  1  0  0  0  0
 41 42  1  0  0  0  0
 41112  1  0  0  0  0
 41113  1  0  0  0  0
 42 43  1  0  0  0  0
 42114  1  0  0  0  0
 42115  1  0  0  0  0
 43 44  1  0  0  0  0
 43 45  2  0  0  0  0
 46 47  1  0  0  0  0
 46116  1  0  0  0  0
 47 48  1  0  0  0  0
 47 50  1  0  0  0  0
 47117  1  1  0  0  0
 48 49  2  0  0  0  0
 48 58  1  0  0  0  0
 50 51  1  0  0  0  0
 50118  1  0  0  0  0
 50119  1  0  0  0  0
 51 52  2  0  0  0  0
 51 53  1  0  0  0  0
 52 54  1  0  0  0  0
 52120  1  0  0  0  0
 53 55  2  0  0  0  0
 53121  1  0  0  0  0
 54 56  2  0  0  0  0
 54122  1  0  0  0  0
 55 56  1  0  0  0  0
 55123  1  0  0  0  0
 56 57  1  0  0  0  0
 57124  1  0  0  0  0
 58 59  1  0  0  0  0
 58125  1  0  0  0  0
 59 60  1  0  0  0  0
 59126  1  0  0  0  0
 59127  1  0  0  0  0
 60 61  2  0  0  0  0
 60 62  1  0  0  0  0
 62 63  1  0  0  0  0
 62128  1  0  0  0  0
 63 64  1  0  0  0  0
 63 66  1  0  0  0  0
 63129  1  1  0  0  0
 64 65  1  0  0  0  0
 64130  2  0  0  0  0
 66 67  1  0  0  0  0
 66 68  1  0  0  0  0
 66131  1  0  0  0  0
 67132  1  0  0  0  0
 67133  1  0  0  0  0
 67134  1  0  0  0  0
 68135  1  0  0  0  0
 68136  1  0  0  0  0
 68137  1  0  0  0  0
M  CHG  3  36   1  44  -1  65  -1
M  END
