4uua_ligand
 OpenBabel08222323353D

137138  0  0  1  0  0  0  0  0999 V2000
  -32.8870  -26.0550   12.4380 C   0  0  0  0  0  0  0  0  0  0  0  0
  -32.2050  -27.0710   12.4790 O   0  0  0  0  0  0  0  0  0  0  0  0
  -33.8050  -25.7910   13.4700 C   0  0  0  0  0  0  0  0  0  0  0  0
  -34.9720  -25.0190   13.2380 C   0  0  0  0  0  0  0  0  0  0  0  0
  -35.8450  -24.7630   14.2620 C   0  0  0  0  0  0  0  0  0  0  0  0
  -35.5180  -25.2900   15.5080 C   0  0  0  0  0  0  0  0  0  0  0  0
  -34.3720  -26.0570   15.7790 C   0  0  0  0  0  0  0  0  0  0  0  0
  -33.4980  -26.3070   14.7410 C   0  0  0  0  0  0  0  0  0  0  0  0
  -32.7380  -25.1300   11.4590 N   0  0  0  0  0  0  0  0  0  0  0  0
  -31.7470  -25.3500   10.3760 C   0  0  0  0  0  0  0  0  0  0  0  0
  -31.9840  -24.2220    9.4200 C   0  0  0  0  0  0  0  0  0  0  0  0
  -33.0730  -23.6170    9.3510 O   0  0  0  0  0  0  0  0  0  0  0  0
  -30.9120  -23.9200    8.7010 N   0  0  0  0  0  0  0  0  0  0  0  0
  -30.8460  -22.7570    7.8480 C   0  0  2  0  0  0  0  0  0  0  0  0
  -31.6190  -23.0270    6.5660 C   0  0  0  0  0  0  0  0  0  0  0  0
  -31.3050  -23.9430    5.8270 O   0  0  0  0  0  0  0  0  0  0  0  0
  -29.3890  -22.4470    7.4910 C   0  0  0  0  0  0  0  0  0  0  0  0
  -29.3120  -21.2700    6.5310 C   0  0  0  0  0  0  0  0  0  0  0  0
  -28.5700  -22.2060    8.7480 C   0  0  0  0  0  0  0  0  0  0  0  0
  -32.6440  -22.2390    6.3120 N   0  0  0  0  0  0  0  0  0  0  0  0
  -33.4210  -22.4070    5.1000 C   0  0  2  0  0  0  0  0  0  0  0  0
  -32.6190  -21.8060    3.9640 C   0  0  0  0  0  0  0  0  0  0  0  0
  -32.1270  -20.6850    4.0890 O   0  0  0  0  0  0  0  0  0  0  0  0
  -34.8040  -21.7250    5.2060 C   0  0  0  0  0  0  0  0  0  0  0  0
  -35.9990  -22.6850    5.3010 C   0  0  0  0  0  0  0  0  0  0  0  0
  -35.8960  -23.6660    6.4500 C   0  0  0  0  0  0  0  0  0  0  0  0
  -37.2970  -21.9090    5.4120 C   0  0  0  0  0  0  0  0  0  0  0  0
  -32.5010  -22.5570    2.8630 N   0  0  0  0  0  0  0  0  0  0  0  0
  -31.7680  -22.1060    1.6880 C   0  0  2  0  0  0  0  0  0  0  0  0
  -32.4910  -20.8610    1.0970 C   0  0  0  0  0  0  0  0  0  0  0  0
  -33.6980  -20.7710    1.1110 O   0  0  0  0  0  0  0  0  0  0  0  0
  -31.4460  -23.2900    0.7580 C   0  0  0  0  0  0  0  0  0  0  0  0
  -32.1020  -23.1460   -0.5990 C   0  0  0  0  0  0  0  0  0  0  0  0
  -31.3260  -24.1010   -1.5170 C   0  0  0  0  0  0  0  0  0  0  0  0
  -31.9220  -23.8480   -2.8960 C   0  0  0  0  0  0  0  0  0  0  0  0
  -31.5040  -25.0000   -3.6950 N   0  3  0  0  0  0  0  0  0  0  0  0
  -31.7130  -19.8910    0.6390 N   0  0  0  0  0  0  0  0  0  0  0  0
  -32.2010  -18.5630    0.2390 C   0  0  2  0  0  0  0  0  0  0  0  0
  -32.9430  -17.8000    1.3540 C   0  0  0  0  0  0  0  0  0  0  0  0
  -33.4990  -16.7130    1.1210 O   0  0  0  0  0  0  0  0  0  0  0  0
  -33.0570  -18.6410   -1.0320 C   0  0  0  0  0  0  0  0  0  0  0  0
  -32.3670  -19.2940   -2.2330 C   0  0  0  0  0  0  0  0  0  0  0  0
  -31.3310  -18.4290   -2.9440 C   0  0  0  0  0  0  0  0  0  0  0  0
  -31.0350  -17.2830   -2.5230 O   0  5  0  0  0  0  0  0  0  0  0  0
  -30.8080  -18.9300   -3.9640 O   0  0  0  0  0  0  0  0  0  0  0  0
  -32.8700  -18.3460    2.5690 N   0  0  0  0  0  0  0  0  0  0  0  0
  -33.6330  -17.8800    3.7320 C   0  0  2  0  0  0  0  0  0  0  0  0
  -35.1650  -18.1020    3.5920 C   0  0  0  0  0  0  0  0  0  0  0  0
  -35.9550  -17.4020    4.2250 O   0  0  0  0  0  0  0  0  0  0  0  0
  -33.2920  -16.4100    4.0530 C   0  0  0  0  0  0  0  0  0  0  0  0
  -31.8120  -16.1380    4.2170 C   0  0  0  0  0  0  0  0  0  0  0  0
  -31.0550  -16.8710    5.1450 C   0  0  0  0  0  0  0  0  0  0  0  0
  -31.1570  -15.1610    3.4570 C   0  0  0  0  0  0  0  0  0  0  0  0
  -29.6870  -16.6400    5.3060 C   0  0  0  0  0  0  0  0  0  0  0  0
  -29.7920  -14.9140    3.6120 C   0  0  0  0  0  0  0  0  0  0  0  0
  -29.0640  -15.6580    4.5400 C   0  0  0  0  0  0  0  0  0  0  0  0
  -27.7140  -15.4700    4.7390 O   0  0  0  0  0  0  0  0  0  0  0  0
  -35.5760  -19.0970    2.8040 N   0  0  0  0  0  0  0  0  0  0  0  0
  -37.0010  -19.3730    2.5590 C   0  0  0  0  0  0  0  0  0  0  0  0
  -37.7040  -18.5120    1.5090 C   0  0  0  0  0  0  0  0  0  0  0  0
  -38.8160  -18.8400    1.1050 O   0  0  0  0  0  0  0  0  0  0  0  0
  -37.0540  -17.4310    1.0570 N   0  0  0  0  0  0  0  0  0  0  0  0
  -37.6720  -16.4240    0.1740 C   0  0  2  0  0  0  0  0  0  0  0  0
  -37.8710  -16.9720   -1.2270 C   0  0  0  0  0  0  0  0  0  0  0  0
  -36.9160  -17.0050   -2.0140 O   0  5  0  0  0  0  0  0  0  0  0  0
  -36.7850  -15.1600    0.0250 C   0  0  0  0  0  0  0  0  0  0  0  0
  -37.4730  -14.1400   -0.8940 C   0  0  0  0  0  0  0  0  0  0  0  0
  -36.4480  -14.5600    1.3840 C   0  0  0  0  0  0  0  0  0  0  0  0
  -35.1738  -24.6301   12.2465 H   0  0  0  0  0  0  0  0  0  0  0  0
  -36.7455  -24.1792   14.1096 H   0  0  0  0  0  0  0  0  0  0  0  0
  -36.1972  -25.0944   16.3299 H   0  0  0  0  0  0  0  0  0  0  0  0
  -34.1803  -26.4410   16.7744 H   0  0  0  0  0  0  0  0  0  0  0  0
  -32.5966  -26.8872   14.9017 H   0  0  0  0  0  0  0  0  0  0  0  0
  -33.2953  -24.2997   11.4661 H   0  0  0  0  0  0  0  0  0  0  0  0
  -31.9165  -26.3192    9.8842 H   0  0  0  0  0  0  0  0  0  0  0  0
  -30.7219  -25.3147   10.7733 H   0  0  0  0  0  0  0  0  0  0  0  0
  -30.1158  -24.5229    8.7515 H   0  0  0  0  0  0  0  0  0  0  0  0
  -31.2868  -21.8954    8.3709 H   0  0  0  0  0  0  0  0  0  0  0  0
  -28.9692  -23.3258    6.9797 H   0  0  0  0  0  0  0  0  0  0  0  0
  -28.2593  -21.0638    6.2875 H   0  0  0  0  0  0  0  0  0  0  0  0
  -29.7599  -20.3826    7.0021 H   0  0  0  0  0  0  0  0  0  0  0  0
  -29.8609  -21.5122    5.6091 H   0  0  0  0  0  0  0  0  0  0  0  0
  -28.6531  -23.0786    9.4126 H   0  0  0  0  0  0  0  0  0  0  0  0
  -28.9484  -21.3128    9.2666 H   0  0  0  0  0  0  0  0  0  0  0  0
  -27.5156  -22.0523    8.4748 H   0  0  0  0  0  0  0  0  0  0  0  0
  -32.8880  -21.5186    6.9612 H   0  0  0  0  0  0  0  0  0  0  0  0
  -33.5731  -23.4804    4.9136 H   0  0  0  0  0  0  0  0  0  0  0  0
  -34.9427  -21.0957    4.3145 H   0  0  0  0  0  0  0  0  0  0  0  0
  -34.8035  -21.0918    6.1054 H   0  0  0  0  0  0  0  0  0  0  0  0
  -36.0268  -23.2678    4.3685 H   0  0  0  0  0  0  0  0  0  0  0  0
  -36.7818  -24.3182    6.4558 H   0  0  0  0  0  0  0  0  0  0  0  0
  -35.8410  -23.1138    7.3998 H   0  0  0  0  0  0  0  0  0  0  0  0
  -34.9904  -24.2786    6.3291 H   0  0  0  0  0  0  0  0  0  0  0  0
  -37.3709  -21.1967    4.5770 H   0  0  0  0  0  0  0  0  0  0  0  0
  -37.3156  -21.3599    6.3650 H   0  0  0  0  0  0  0  0  0  0  0  0
  -38.1461  -22.6073    5.3744 H   0  0  0  0  0  0  0  0  0  0  0  0
  -32.9312  -23.4596    2.8463 H   0  0  0  0  0  0  0  0  0  0  0  0
  -30.7906  -21.7407    2.0362 H   0  0  0  0  0  0  0  0  0  0  0  0
  -31.8046  -24.2175    1.2282 H   0  0  0  0  0  0  0  0  0  0  0  0
  -30.3561  -23.3462    0.6204 H   0  0  0  0  0  0  0  0  0  0  0  0
  -32.0202  -22.1103   -0.9604 H   0  0  0  0  0  0  0  0  0  0  0  0
  -33.1624  -23.4341   -0.5487 H   0  0  0  0  0  0  0  0  0  0  0  0
  -31.4769  -25.1468   -1.2113 H   0  0  0  0  0  0  0  0  0  0  0  0
  -30.2512  -23.8673   -1.5063 H   0  0  0  0  0  0  0  0  0  0  0  0
  -31.5278  -22.9147   -3.3243 H   0  0  0  0  0  0  0  0  0  0  0  0
  -33.0191  -23.7913   -2.8406 H   0  0  0  0  0  0  0  0  0  0  0  0
  -31.8628  -24.9067   -4.6323 H   0  0  0  0  0  0  0  0  0  0  0  0
  -31.8639  -25.8452   -3.2800 H   0  0  0  0  0  0  0  0  0  0  0  0
  -30.4973  -25.0418   -3.7233 H   0  0  0  0  0  0  0  0  0  0  0  0
  -30.7329  -20.0736    0.5605 H   0  0  0  0  0  0  0  0  0  0  0  0
  -31.3104  -17.9666   -0.0081 H   0  0  0  0  0  0  0  0  0  0  0  0
  -33.3415  -17.6171   -1.3161 H   0  0  0  0  0  0  0  0  0  0  0  0
  -33.9618  -19.2220   -0.7999 H   0  0  0  0  0  0  0  0  0  0  0  0
  -33.1429  -19.5639   -2.9645 H   0  0  0  0  0  0  0  0  0  0  0  0
  -31.8628  -20.2057   -1.8800 H   0  0  0  0  0  0  0  0  0  0  0  0
  -32.2547  -19.1241    2.6953 H   0  0  0  0  0  0  0  0  0  0  0  0
  -33.3051  -18.4836    4.5911 H   0  0  0  0  0  0  0  0  0  0  0  0
  -33.7991  -16.1348    4.9895 H   0  0  0  0  0  0  0  0  0  0  0  0
  -33.6695  -15.7813    3.2331 H   0  0  0  0  0  0  0  0  0  0  0  0
  -31.5411  -17.6299    5.7474 H   0  0  0  0  0  0  0  0  0  0  0  0
  -31.7218  -14.5846    2.7333 H   0  0  0  0  0  0  0  0  0  0  0  0
  -29.1151  -17.2202    6.0211 H   0  0  0  0  0  0  0  0  0  0  0  0
  -29.3027  -14.1514    3.0169 H   0  0  0  0  0  0  0  0  0  0  0  0
  -27.4071  -16.0702    5.4084 H   0  0  0  0  0  0  0  0  0  0  0  0
  -34.8906  -19.6768    2.3635 H   0  0  0  0  0  0  0  0  0  0  0  0
  -37.5341  -19.2362    3.5114 H   0  0  0  0  0  0  0  0  0  0  0  0
  -37.0857  -20.4219    2.2388 H   0  0  0  0  0  0  0  0  0  0  0  0
  -36.1016  -17.3003    1.3323 H   0  0  0  0  0  0  0  0  0  0  0  0
  -38.6455  -16.1388    0.5995 H   0  0  0  0  0  0  0  0  0  0  0  0
  -39.0031  -17.3915   -1.5876 O   0  0  0  0  0  0  0  0  0  0  0  0
  -35.8401  -15.4611   -0.4510 H   0  0  0  0  0  0  0  0  0  0  0  0
  -36.8367  -13.2482   -0.9932 H   0  0  0  0  0  0  0  0  0  0  0  0
  -38.4426  -13.8523   -0.4616 H   0  0  0  0  0  0  0  0  0  0  0  0
  -37.6324  -14.5888   -1.8856 H   0  0  0  0  0  0  0  0  0  0  0  0
  -35.9582  -15.3209    2.0094 H   0  0  0  0  0  0  0  0  0  0  0  0
  -37.3724  -14.2215    1.8748 H   0  0  0  0  0  0  0  0  0  0  0  0
  -35.7700  -13.7044    1.2491 H   0  0  0  0  0  0  0  0  0  0  0  0
  1  2  2  0  0  0  0
  1  3  1  0  0  0  0
  1  9  1  0  0  0  0
  3  4  2  0  0  0  0
  3  8  1  0  0  0  0
  4  5  1  0  0  0  0
  4 69  1  0  0  0  0
  5  6  2  0  0  0  0
  5 70  1  0  0  0  0
  6  7  1  0  0  0  0
  6 71  1  0  0  0  0
  7  8  2  0  0  0  0
  7 72  1  0  0  0  0
  8 73  1  0  0  0  0
  9 10  1  0  0  0  0
  9 74  1  0  0  0  0
 10 11  1  0  0  0  0
 10 75  1  0  0  0  0
 10 76  1  0  0  0  0
 11 12  2  0  0  0  0
 11 13  1  0  0  0  0
 13 14  1  0  0  0  0
 13 77  1  0  0  0  0
 14 15  1  0  0  0  0
 14 17  1  0  0  0  0
 14 78  1  1  0  0  0
 15 16  2  0  0  0  0
 15 20  1  0  0  0  0
 17 18  1  0  0  0  0
 17 19  1  0  0  0  0
 17 79  1  0  0  0  0
 18 80  1  0  0  0  0
 18 81  1  0  0  0  0
 18 82  1  0  0  0  0
 19 83  1  0  0  0  0
 19 84  1  0  0  0  0
 19 85  1  0  0  0  0
 20 21  1  0  0  0  0
 20 86  1  0  0  0  0
 21 22  1  0  0  0  0
 21 24  1  0  0  0  0
 21 87  1  6  0  0  0
 22 23  2  0  0  0  0
 22 28  1  0  0  0  0
 24 25  1  0  0  0  0
 24 88  1  0  0  0  0
 24 89  1  0  0  0  0
 25 26  1  0  0  0  0
 25 27  1  0  0  0  0
 25 90  1  0  0  0  0
 26 91  1  0  0  0  0
 26 92  1  0  0  0  0
 26 93  1  0  0  0  0
 27 94  1  0  0  0  0
 27 95  1  0  0  0  0
 27 96  1  0  0  0  0
 28 29  1  0  0  0  0
 28 97  1  0  0  0  0
 29 30  1  0  0  0  0
 29 32  1  0  0  0  0
 29 98  1  1  0  0  0
 30 31  2  0  0  0  0
 30 37  1  0  0  0  0
 32 33  1  0  0  0  0
 32 99  1  0  0  0  0
 32100  1  0  0  0  0
 33 34  1  0  0  0  0
 33101  1  0  0  0  0
 33102  1  0  0  0  0
 34 35  1  0  0  0  0
 34103  1  0  0  0  0
 34104  1  0  0  0  0
 35 36  1  0  0  0  0
 35105  1  0  0  0  0
 35106  1  0  0  0  0
 36107  1  0  0  0  0
 36108  1  0  0  0  0
 36109  1  0  0  0  0
 37 38  1  0  0  0  0
 37110  1  0  0  0  0
 38 39  1  0  0  0  0
 38 41  1  0  0  0  0
 38111  1  6  0  0  0
 39 40  2  0  0  0  0
 39 46  1  0  0  0  0
 41 42  1  0  0  0  0
 41112  1  0  0  0  0
 41113  1  0  0  0  0
 42 43  1  0  0  0  0
 42114  1  0  0  0  0
 42115  1  0  0  0  0
 43 44  1  0  0  0  0
 43 45  2  0  0  0  0
 46 47  1  0  0  0  0
 46116  1  0  0  0  0
 47 48  1  0  0  0  0
 47 50  1  0  0  0  0
 47117  1  1  0  0  0
 48 49  2  0  0  0  0
 48 58  1  0  0  0  0
 50 51  1  0  0  0  0
 50118  1  0  0  0  0
 50119  1  0  0  0  0
 51 52  2  0  0  0  0
 51 53  1  0  0  0  0
 52 54  1  0  0  0  0
 52120  1  0  0  0  0
 53 55  2  0  0  0  0
 53121  1  0  0  0  0
 54 56  2  0  0  0  0
 54122  1  0  0  0  0
 55 56  1  0  0  0  0
 55123  1  0  0  0  0
 56 57  1  0  0  0  0
 57124  1  0  0  0  0
 58 59  1  0  0  0  0
 58125  1  0  0  0  0
 59 60  1  0  0  0  0
 59126  1  0  0  0  0
 59127  1  0  0  0  0
 60 61  2  0  0  0  0
 60 62  1  0  0  0  0
 62 63  1  0  0  0  0
 62128  1  0  0  0  0
 63 64  1  0  0  0  0
 63 66  1  0  0  0  0
 63129  1  1  0  0  0
 64 65  1  0  0  0  0
 64130  2  0  0  0  0
 66 67  1  0  0  0  0
 66 68  1  0  0  0  0
 66131  1  0  0  0  0
 67132  1  0  0  0  0
 67133  1  0  0  0  0
 67134  1  0  0  0  0
 68135  1  0  0  0  0
 68136  1  0  0  0  0
 68137  1  0  0  0  0
M  CHG  3  36   1  44  -1  65  -1
M  END
