4uvw_ligand
 OpenBabel08222323353D

 34 36  0  0  0  0  0  0  0  0999 V2000
  -41.6650  -12.8050   11.2540 C   0  0  0  0  0  0  0  0  0  0  0  0
  -40.8920  -12.1160   12.2460 C   0  0  0  0  0  0  0  0  0  0  0  0
  -41.0610  -12.3460   13.6420 C   0  0  0  0  0  0  0  0  0  0  0  0
  -41.9790  -13.3090   14.1980 C   0  0  0  0  0  0  0  0  0  0  0  0
  -42.8180  -14.1700   13.4250 C   0  0  0  0  0  0  0  0  0  0  0  0
  -42.1080  -13.4560   15.5880 C   0  0  0  0  0  0  0  0  0  0  0  0
  -41.3320  -12.6780   16.4550 C   0  0  0  0  0  0  0  0  0  0  0  0
  -40.4420  -11.7500   15.9320 C   0  0  0  0  0  0  0  0  0  0  0  0
  -40.2850  -11.5770   14.5580 C   0  0  0  0  0  0  0  0  0  0  0  0
  -39.3470  -10.6380   14.0920 C   0  0  0  0  0  0  0  0  0  0  0  0
  -38.6290   -9.9670   14.8500 O   0  0  0  0  0  0  0  0  0  0  0  0
  -39.1890  -10.4350   12.7140 N   0  0  0  0  0  0  0  0  0  0  0  0
  -39.9600  -11.1440   11.7740 C   0  0  0  0  0  0  0  0  0  0  0  0
  -39.7090  -10.8670   10.4050 C   0  0  0  0  0  0  0  0  0  0  0  0
  -39.5840  -11.8790    9.4430 C   0  0  0  0  0  0  0  0  0  0  0  0
  -39.2700  -11.5650    8.1110 C   0  0  0  0  0  0  0  0  0  0  0  0
  -39.1080  -10.2310    7.7130 C   0  0  0  0  0  0  0  0  0  0  0  0
  -39.2040   -9.2320    8.6760 C   0  0  0  0  0  0  0  0  0  0  0  0
  -39.4980   -9.5570    9.9810 C   0  0  0  0  0  0  0  0  0  0  0  0
  -42.3392  -13.5210   11.7467 H   0  0  0  0  0  0  0  0  0  0  0  0
  -40.9904  -13.3452   10.5735 H   0  0  0  0  0  0  0  0  0  0  0  0
  -42.2584  -12.0774   10.6809 H   0  0  0  0  0  0  0  0  0  0  0  0
  -43.4155  -14.8015   14.0990 H   0  0  0  0  0  0  0  0  0  0  0  0
  -42.1948  -14.8081   12.7813 H   0  0  0  0  0  0  0  0  0  0  0  0
  -43.4895  -13.5631   12.7999 H   0  0  0  0  0  0  0  0  0  0  0  0
  -42.8116  -14.1751   15.9917 H   0  0  0  0  0  0  0  0  0  0  0  0
  -41.4255  -12.7994   17.5281 H   0  0  0  0  0  0  0  0  0  0  0  0
  -39.8532  -11.1435   16.6106 H   0  0  0  0  0  0  0  0  0  0  0  0
  -38.5135   -9.7717   12.3918 H   0  0  0  0  0  0  0  0  0  0  0  0
  -39.7312  -12.9138    9.7302 H   0  0  0  0  0  0  0  0  0  0  0  0
  -39.1519  -12.3609    7.3846 H   0  0  0  0  0  0  0  0  0  0  0  0
  -38.9119   -9.9829    6.6761 H   0  0  0  0  0  0  0  0  0  0  0  0
  -39.0471   -8.1959    8.3985 H   0  0  0  0  0  0  0  0  0  0  0  0
  -39.5684   -8.7584   10.7107 H   0  0  0  0  0  0  0  0  0  0  0  0
  1  2  1  0  0  0  0
  1 20  1  0  0  0  0
  1 21  1  0  0  0  0
  1 22  1  0  0  0  0
  2  3  1  0  0  0  0
  2 13  2  0  0  0  0
  3  4  2  0  0  0  0
  3  9  1  0  0  0  0
  4  5  1  0  0  0  0
  4  6  1  0  0  0  0
  5 23  1  0  0  0  0
  5 24  1  0  0  0  0
  5 25  1  0  0  0  0
  6  7  2  0  0  0  0
  6 26  1  0  0  0  0
  7  8  1  0  0  0  0
  7 27  1  0  0  0  0
  8  9  2  0  0  0  0
  8 28  1  0  0  0  0
  9 10  1  0  0  0  0
 10 11  2  0  0  0  0
 10 12  1  0  0  0  0
 12 13  1  0  0  0  0
 12 29  1  0  0  0  0
 13 14  1  0  0  0  0
 14 15  2  0  0  0  0
 14 19  1  0  0  0  0
 15 16  1  0  0  0  0
 15 30  1  0  0  0  0
 16 17  2  0  0  0  0
 16 31  1  0  0  0  0
 17 18  1  0  0  0  0
 17 32  1  0  0  0  0
 18 19  2  0  0  0  0
 18 33  1  0  0  0  0
 19 34  1  0  0  0  0
M  END
