4uvx_ligand
 OpenBabel08222323353D

 28 30  0  0  0  0  0  0  0  0999 V2000
  -39.2660  -12.9300   12.4720 C   0  0  0  0  0  0  0  0  0  0  0  0
  -39.3080  -13.1460   13.8390 C   0  0  0  0  0  0  0  0  0  0  0  0
  -40.1470  -14.1470   14.3370 C   0  0  0  0  0  0  0  0  0  0  0  0
  -40.8470  -14.9030   13.4970 F   0  0  0  0  0  0  0  0  0  0  0  0
  -40.2340  -14.3670   15.7100 C   0  0  0  0  0  0  0  0  0  0  0  0
  -39.4700  -13.6060   16.5910 C   0  0  0  0  0  0  0  0  0  0  0  0
  -38.6120  -12.6020   16.0990 C   0  0  0  0  0  0  0  0  0  0  0  0
  -38.5260  -12.3840   14.7270 C   0  0  0  0  0  0  0  0  0  0  0  0
  -37.6870  -11.3940   14.2020 C   0  0  0  0  0  0  0  0  0  0  0  0
  -36.9180  -10.7240   14.8900 O   0  0  0  0  0  0  0  0  0  0  0  0
  -37.6490  -11.2100   12.8400 N   0  0  0  0  0  0  0  0  0  0  0  0
  -38.4380  -11.9410   11.9410 C   0  0  0  0  0  0  0  0  0  0  0  0
  -38.3420  -11.6510   10.5540 C   0  0  0  0  0  0  0  0  0  0  0  0
  -37.8680  -10.3760   10.1310 C   0  0  0  0  0  0  0  0  0  0  0  0
  -37.7520  -10.0440    8.7970 C   0  0  0  0  0  0  0  0  0  0  0  0
  -38.1300  -10.9700    7.8340 C   0  0  0  0  0  0  0  0  0  0  0  0
  -37.9430  -10.5890    6.1370 Cl  0  0  0  0  0  0  0  0  0  0  0  0
  -38.6110  -12.2250    8.2220 C   0  0  0  0  0  0  0  0  0  0  0  0
  -38.7270  -12.5630    9.5760 C   0  0  0  0  0  0  0  0  0  0  0  0
  -39.8822  -13.5349   11.8084 H   0  0  0  0  0  0  0  0  0  0  0  0
  -40.8984  -15.1328   16.0936 H   0  0  0  0  0  0  0  0  0  0  0  0
  -39.5353  -13.7863   17.6579 H   0  0  0  0  0  0  0  0  0  0  0  0
  -38.0230  -12.0035   16.7845 H   0  0  0  0  0  0  0  0  0  0  0  0
  -37.0266  -10.5193   12.4718 H   0  0  0  0  0  0  0  0  0  0  0  0
  -37.5898   -9.6440   10.8805 H   0  0  0  0  0  0  0  0  0  0  0  0
  -37.3706   -9.0724    8.5044 H   0  0  0  0  0  0  0  0  0  0  0  0
  -38.8977  -12.9454    7.4645 H   0  0  0  0  0  0  0  0  0  0  0  0
  -39.1161  -13.5336    9.8618 H   0  0  0  0  0  0  0  0  0  0  0  0
  1  2  1  0  0  0  0
  1 12  2  0  0  0  0
  1 20  1  0  0  0  0
  2  3  2  0  0  0  0
  2  8  1  0  0  0  0
  3  4  1  0  0  0  0
  3  5  1  0  0  0  0
  5  6  2  0  0  0  0
  5 21  1  0  0  0  0
  6  7  1  0  0  0  0
  6 22  1  0  0  0  0
  7  8  2  0  0  0  0
  7 23  1  0  0  0  0
  8  9  1  0  0  0  0
  9 10  2  0  0  0  0
  9 11  1  0  0  0  0
 11 12  1  0  0  0  0
 11 24  1  0  0  0  0
 12 13  1  0  0  0  0
 13 14  2  0  0  0  0
 13 19  1  0  0  0  0
 14 15  1  0  0  0  0
 14 25  1  0  0  0  0
 15 16  2  0  0  0  0
 15 26  1  0  0  0  0
 16 17  1  0  0  0  0
 16 18  1  0  0  0  0
 18 19  2  0  0  0  0
 18 27  1  0  0  0  0
 19 28  1  0  0  0  0
M  END
