4uwg_ligand
 OpenBabel08222323353D

 54 56  0  0  1  0  0  0  0  0999 V2000
   18.7570  -16.8840  -24.4970 C   0  0  2  0  0  3  0  0  0  0  0  0
   18.1610  -15.6910  -24.1590 N   0  0  0  0  0  0  0  0  0  0  0  0
   18.0100  -18.0700  -24.6350 N   0  0  0  0  0  0  0  0  0  0  0  0
   16.7440  -15.5940  -23.9340 C   0  0  0  0  0  0  0  0  0  0  0  0
   20.2260  -16.8870  -24.6960 N   0  0  0  0  0  0  0  0  0  0  0  0
   16.5680  -18.0200  -24.4770 C   0  0  0  0  0  0  0  0  0  0  0  0
   15.9680  -16.7700  -24.0980 C   0  0  0  0  0  0  0  0  0  0  0  0
   20.8280  -18.1440  -25.1820 C   0  0  2  0  0  0  0  0  0  0  0  0
   20.9050  -18.1820  -26.6940 C   0  0  0  0  0  0  0  0  0  0  0  0
   16.2810  -14.3710  -23.7350 N   0  0  0  0  0  4  0  0  0  0  0  0
   18.6660  -19.4080  -24.8310 C   0  0  0  0  0  0  0  0  0  0  0  0
   20.1690  -19.3770  -24.5410 C   0  0  0  0  0  0  0  0  0  0  0  0
   15.9800  -19.0530  -24.7700 O   0  0  0  0  0  0  0  0  0  0  0  0
   21.4010  -19.3350  -27.1380 F   0  0  0  0  0  0  0  0  0  0  0  0
   19.7230  -18.0200  -27.2800 F   0  0  0  0  0  0  0  0  0  0  0  0
   21.6890  -17.2220  -27.1590 F   0  0  0  0  0  0  0  0  0  0  0  0
   15.3130  -11.8840  -22.8220 O   0  0  0  0  0  0  0  0  0  0  0  0
   20.9840  -16.2300  -23.6290 C   0  0  0  0  0  0  0  0  0  0  0  0
   17.2050  -13.2350  -23.5340 C   0  0  0  0  0  0  0  0  0  0  0  0
   14.8640  -13.9960  -23.9160 C   0  0  0  0  0  0  0  0  0  0  0  0
   21.2050  -14.7550  -23.7450 C   0  0  0  0  0  0  0  0  0  0  0  0
   21.4570  -14.2230  -22.4430 O   0  0  0  0  0  0  0  0  0  0  0  0
   14.4510  -13.0160  -22.8490 C   0  0  0  0  0  0  0  0  0  0  0  0
   16.6440  -12.2900  -22.5020 C   0  0  0  0  0  0  0  0  0  0  0  0
   21.1350  -12.8410  -22.2060 C   0  0  0  0  0  0  0  0  0  0  0  0
   22.0850  -12.0050  -23.0090 C   0  0  0  0  0  0  0  0  0  0  0  0
   21.3040  -12.6120  -20.7550 C   0  0  0  0  0  0  0  0  0  0  0  0
   18.7438  -14.8470  -24.0648 H   0  0  0  0  0  0  0  0  0  0  0  0
   15.2164  -16.5408  -24.8678 H   0  0  0  0  0  0  0  0  0  0  0  0
   15.4652  -16.9465  -23.1357 H   0  0  0  0  0  0  0  0  0  0  0  0
   21.8700  -18.1448  -24.8295 H   0  0  0  0  0  0  0  0  0  0  0  0
   18.5152  -19.7246  -25.8736 H   0  0  0  0  0  0  0  0  0  0  0  0
   18.1921  -20.1348  -24.1549 H   0  0  0  0  0  0  0  0  0  0  0  0
   20.3248  -19.3433  -23.4526 H   0  0  0  0  0  0  0  0  0  0  0  0
   20.6332  -20.2866  -24.9499 H   0  0  0  0  0  0  0  0  0  0  0  0
   21.9734  -16.7087  -23.5851 H   0  0  0  0  0  0  0  0  0  0  0  0
   20.4476  -16.4094  -22.6855 H   0  0  0  0  0  0  0  0  0  0  0  0
   17.3358  -12.6991  -24.4857 H   0  0  0  0  0  0  0  0  0  0  0  0
   18.1786  -13.6139  -23.1898 H   0  0  0  0  0  0  0  0  0  0  0  0
   14.2367  -14.8969  -23.8458 H   0  0  0  0  0  0  0  0  0  0  0  0
   14.7328  -13.5340  -24.9056 H   0  0  0  0  0  0  0  0  0  0  0  0
   20.3095  -14.2795  -24.1716 H   0  0  0  0  0  0  0  0  0  0  0  0
   22.0692  -14.5609  -24.3972 H   0  0  0  0  0  0  0  0  0  0  0  0
   13.4237  -12.6788  -23.0511 H   0  0  0  0  0  0  0  0  0  0  0  0
   14.4868  -13.5166  -21.8702 H   0  0  0  0  0  0  0  0  0  0  0  0
   16.6371  -12.7940  -21.5243 H   0  0  0  0  0  0  0  0  0  0  0  0
   17.2855  -11.3980  -22.4502 H   0  0  0  0  0  0  0  0  0  0  0  0
   20.0994  -12.6226  -22.5055 H   0  0  0  0  0  0  0  0  0  0  0  0
   21.8625  -10.9399  -22.8476 H   0  0  0  0  0  0  0  0  0  0  0  0
   21.9727  -12.2453  -24.0765 H   0  0  0  0  0  0  0  0  0  0  0  0
   23.1170  -12.2161  -22.6922 H   0  0  0  0  0  0  0  0  0  0  0  0
   21.0685  -11.5636  -20.5194 H   0  0  0  0  0  0  0  0  0  0  0  0
   22.3439  -12.8275  -20.4684 H   0  0  0  0  0  0  0  0  0  0  0  0
   20.6253  -13.2744  -20.1977 H   0  0  0  0  0  0  0  0  0  0  0  0
  1  2  1  1  0  0  0
  1  3  1  0  0  0  0
  1  5  1  0  0  0  0
  2 28  1  0  0  0  0
  3 11  1  0  0  0  0
  4  2  1  0  0  0  0
  4  7  1  0  0  0  0
  5  8  1  0  0  0  0
  5 18  1  0  0  0  0
  6  3  1  0  0  0  0
  6 13  2  0  0  0  0
  7  6  1  0  0  0  0
  7 29  1  0  0  0  0
  7 30  1  0  0  0  0
  8  9  1  0  0  0  0
  8 12  1  0  0  0  0
  8 31  1  1  0  0  0
  9 14  1  0  0  0  0
  9 15  1  0  0  0  0
  9 16  1  0  0  0  0
 10  4  2  0  0  0  0
 10 20  1  0  0  0  0
 11 12  1  0  0  0  0
 11 32  1  0  0  0  0
 11 33  1  0  0  0  0
 12 34  1  0  0  0  0
 12 35  1  0  0  0  0
 17 23  1  0  0  0  0
 18 21  1  0  0  0  0
 18 36  1  0  0  0  0
 18 37  1  0  0  0  0
 19 10  1  0  0  0  0
 19 24  1  0  0  0  0
 19 38  1  0  0  0  0
 19 39  1  0  0  0  0
 20 23  1  0  0  0  0
 20 40  1  0  0  0  0
 20 41  1  0  0  0  0
 21 22  1  0  0  0  0
 21 42  1  0  0  0  0
 21 43  1  0  0  0  0
 22 25  1  0  0  0  0
 23 44  1  0  0  0  0
 23 45  1  0  0  0  0
 24 17  1  0  0  0  0
 24 46  1  0  0  0  0
 24 47  1  0  0  0  0
 25 26  1  0  0  0  0
 25 27  1  0  0  0  0
 25 48  1  0  0  0  0
 26 49  1  0  0  0  0
 26 50  1  0  0  0  0
 26 51  1  0  0  0  0
 27 52  1  0  0  0  0
 27 53  1  0  0  0  0
 27 54  1  0  0  0  0
M  END
