4uwl_ligand
 OpenBabel08222323353D

 54 56  0  0  1  0  0  0  0  0999 V2000
  -30.5910   16.8560   -7.0370 C   0  0  0  0  0  0  0  0  0  0  0  0
  -29.7620   15.7320   -7.1110 C   0  0  0  0  0  0  0  0  0  0  0  0
  -28.4270   15.8450   -6.8820 N   0  0  0  0  0  0  0  0  0  0  0  0
  -30.0580   18.1380   -6.6640 C   0  0  0  0  0  0  0  0  0  0  0  0
  -30.7170   19.1700   -6.5340 O   0  0  0  0  0  0  0  0  0  0  0  0
  -28.6760   18.1740   -6.4280 N   0  0  0  0  0  0  0  0  0  0  0  0
  -27.8930   16.9850   -6.5270 C   0  0  2  0  0  3  0  0  0  0  0  0
  -26.4520   17.0200   -6.2720 N   0  0  0  0  0  0  0  0  0  0  0  0
  -25.8660   18.2690   -5.7560 C   0  0  1  0  0  0  0  0  0  0  0  0
  -26.5650   19.5040   -6.3360 C   0  0  0  0  0  0  0  0  0  0  0  0
  -28.0760   19.4770   -6.0730 C   0  0  0  0  0  0  0  0  0  0  0  0
  -30.3180   14.4060   -7.4980 N   0  0  0  0  0  0  0  0  0  0  0  0
  -25.8830   18.2900   -4.1650 C   0  0  0  0  0  0  0  0  0  0  0  0
  -27.0980   18.1440   -3.6480 F   0  0  0  0  0  0  0  0  0  0  0  0
  -25.1470   17.2910   -3.6970 F   0  0  0  0  0  0  0  0  0  0  0  0
  -25.3820   19.4090   -3.6570 F   0  0  0  0  0  0  0  0  0  0  0  0
  -29.3560   13.2950   -7.4460 C   0  0  0  0  0  0  0  0  0  0  0  0
  -29.8110   12.1620   -8.3290 C   0  0  0  0  0  0  0  0  0  0  0  0
  -31.1360   11.7380   -8.0030 O   0  0  0  0  0  0  0  0  0  0  0  0
  -32.1010   12.8140   -8.1190 C   0  0  0  0  0  0  0  0  0  0  0  0
  -31.7540   13.9960   -7.2580 C   0  0  1  0  0  0  0  0  0  0  0  0
  -32.0420   13.7800   -5.7800 C   0  0  0  0  0  0  0  0  0  0  0  0
  -25.6590   15.8070   -6.3840 C   0  0  0  0  0  0  0  0  0  0  0  0
  -25.3080   15.4640   -7.8170 C   0  0  0  0  0  0  0  0  0  0  0  0
  -25.4940   16.2800   -8.6940 O   0  0  0  0  0  0  0  0  0  0  0  0
  -24.7400   14.0820   -8.0600 C   0  0  0  0  0  0  0  0  0  0  0  0
  -25.7630   13.2190   -8.7750 C   0  0  0  0  0  0  0  0  0  0  0  0
  -23.4410   14.1790   -8.8450 C   0  0  0  0  0  0  0  0  0  0  0  0
  -31.3780   16.6184   -6.3062 H   0  0  0  0  0  0  0  0  0  0  0  0
  -31.0410   16.9806   -8.0330 H   0  0  0  0  0  0  0  0  0  0  0  0
  -24.8150   18.3012   -6.0789 H   0  0  0  0  0  0  0  0  0  0  0  0
  -26.3928   19.5339   -7.4220 H   0  0  0  0  0  0  0  0  0  0  0  0
  -26.1386   20.4057   -5.8721 H   0  0  0  0  0  0  0  0  0  0  0  0
  -28.2541   19.6710   -5.0050 H   0  0  0  0  0  0  0  0  0  0  0  0
  -28.5552   20.2642   -6.6736 H   0  0  0  0  0  0  0  0  0  0  0  0
  -29.2735   12.9357   -6.4096 H   0  0  0  0  0  0  0  0  0  0  0  0
  -28.3735   13.6503   -7.7903 H   0  0  0  0  0  0  0  0  0  0  0  0
  -29.1235   11.3127   -8.2021 H   0  0  0  0  0  0  0  0  0  0  0  0
  -29.7913   12.4964   -9.3768 H   0  0  0  0  0  0  0  0  0  0  0  0
  -33.0887   12.4357   -7.8167 H   0  0  0  0  0  0  0  0  0  0  0  0
  -32.1392   13.1416   -9.1684 H   0  0  0  0  0  0  0  0  0  0  0  0
  -32.3924   14.8302   -7.5845 H   0  0  0  0  0  0  0  0  0  0  0  0
  -33.0936   13.4841   -5.6508 H   0  0  0  0  0  0  0  0  0  0  0  0
  -31.8535   14.7134   -5.2294 H   0  0  0  0  0  0  0  0  0  0  0  0
  -31.3873   12.9862   -5.3910 H   0  0  0  0  0  0  0  0  0  0  0  0
  -26.2312   14.9722   -5.9532 H   0  0  0  0  0  0  0  0  0  0  0  0
  -24.7263   15.9435   -5.8170 H   0  0  0  0  0  0  0  0  0  0  0  0
  -24.5192   13.6190   -7.0869 H   0  0  0  0  0  0  0  0  0  0  0  0
  -25.3417   12.2176   -8.9471 H   0  0  0  0  0  0  0  0  0  0  0  0
  -26.0205   13.6793   -9.7403 H   0  0  0  0  0  0  0  0  0  0  0  0
  -26.6683   13.1345   -8.1559 H   0  0  0  0  0  0  0  0  0  0  0  0
  -22.7272   14.8107   -8.2960 H   0  0  0  0  0  0  0  0  0  0  0  0
  -23.6408   14.6234   -9.8312 H   0  0  0  0  0  0  0  0  0  0  0  0
  -23.0154   13.1731   -8.9755 H   0  0  0  0  0  0  0  0  0  0  0  0
  1  2  1  0  0  0  0
  1  4  1  0  0  0  0
  1 29  1  0  0  0  0
  1 30  1  0  0  0  0
  2  3  2  0  0  0  0
  2 12  1  0  0  0  0
  4  5  2  0  0  0  0
  4  6  1  0  0  0  0
  6  7  1  0  0  0  0
  6 11  1  0  0  0  0
  7  3  1  6  0  0  0
  7  8  1  0  0  0  0
  8  9  1  0  0  0  0
  8 23  1  0  0  0  0
  9 10  1  0  0  0  0
  9 13  1  0  0  0  0
  9 31  1  6  0  0  0
 10 11  1  0  0  0  0
 10 32  1  0  0  0  0
 10 33  1  0  0  0  0
 11 34  1  0  0  0  0
 11 35  1  0  0  0  0
 12 17  1  0  0  0  0
 12 21  1  0  0  0  0
 13 14  1  0  0  0  0
 13 15  1  0  0  0  0
 13 16  1  0  0  0  0
 17 18  1  0  0  0  0
 17 36  1  0  0  0  0
 17 37  1  0  0  0  0
 18 19  1  0  0  0  0
 18 38  1  0  0  0  0
 18 39  1  0  0  0  0
 19 20  1  0  0  0  0
 20 21  1  0  0  0  0
 20 40  1  0  0  0  0
 20 41  1  0  0  0  0
 21 22  1  0  0  0  0
 21 42  1  6  0  0  0
 22 43  1  0  0  0  0
 22 44  1  0  0  0  0
 22 45  1  0  0  0  0
 23 24  1  0  0  0  0
 23 46  1  0  0  0  0
 23 47  1  0  0  0  0
 24 25  2  0  0  0  0
 24 26  1  0  0  0  0
 26 27  1  0  0  0  0
 26 28  1  0  0  0  0
 26 48  1  0  0  0  0
 27 49  1  0  0  0  0
 27 50  1  0  0  0  0
 27 51  1  0  0  0  0
 28 52  1  0  0  0  0
 28 53  1  0  0  0  0
 28 54  1  0  0  0  0
M  END
