4ux4_ligand
 OpenBabel08222323353D

 35 37  0  0  0  0  0  0  0  0999 V2000
  -39.0360  -10.4270    6.3270 C   0  0  0  0  0  0  0  0  0  0  0  0
  -39.0120  -10.7140    7.8100 C   0  0  0  0  0  0  0  0  0  0  0  0
  -38.5370   -9.7740    8.7610 C   0  0  0  0  0  0  0  0  0  0  0  0
  -38.5170  -10.0920   10.1150 C   0  0  0  0  0  0  0  0  0  0  0  0
  -38.9600  -11.3390   10.5560 C   0  0  0  0  0  0  0  0  0  0  0  0
  -39.4740  -12.2910    9.5790 C   0  0  0  0  0  0  0  0  0  0  0  0
  -39.4730  -11.9770    8.2660 C   0  0  0  0  0  0  0  0  0  0  0  0
  -39.0060  -11.6470   12.0600 C   0  0  0  0  0  0  0  0  0  0  0  0
  -39.9150  -12.6740   12.5750 C   0  0  0  0  0  0  0  0  0  0  0  0
  -39.9870  -12.9360   14.0640 C   0  0  0  0  0  0  0  0  0  0  0  0
  -39.2090  -12.1600   14.9410 C   0  0  0  0  0  0  0  0  0  0  0  0
  -39.2760  -12.3670   16.3510 C   0  0  0  0  0  0  0  0  0  0  0  0
  -40.1560  -13.3370   16.7960 C   0  0  0  0  0  0  0  0  0  0  0  0
  -40.9080  -14.1050   15.9010 C   0  0  0  0  0  0  0  0  0  0  0  0
  -40.8020  -13.8850   14.5320 N   0  0  0  0  0  0  0  0  0  0  0  0
  -41.6680  -14.7060   13.6470 C   0  0  0  0  0  0  0  0  0  0  0  0
  -38.2700  -11.1140   14.3880 C   0  0  0  0  0  0  0  0  0  0  0  0
  -37.5230  -10.4440   15.1070 O   0  0  0  0  0  0  0  0  0  0  0  0
  -38.2520  -10.8740   12.9500 N   0  0  0  0  0  0  0  0  0  0  0  0
  -38.6492   -9.4138    6.1433 H   0  0  0  0  0  0  0  0  0  0  0  0
  -40.0693  -10.4977    5.9565 H   0  0  0  0  0  0  0  0  0  0  0  0
  -38.4070  -11.1605    5.8013 H   0  0  0  0  0  0  0  0  0  0  0  0
  -38.1877   -8.8025    8.4304 H   0  0  0  0  0  0  0  0  0  0  0  0
  -38.1544   -9.3652   10.8329 H   0  0  0  0  0  0  0  0  0  0  0  0
  -39.8569  -13.2507    9.9067 H   0  0  0  0  0  0  0  0  0  0  0  0
  -39.8313  -12.7035    7.5457 H   0  0  0  0  0  0  0  0  0  0  0  0
  -40.5368  -13.2470   11.8888 H   0  0  0  0  0  0  0  0  0  0  0  0
  -38.6644  -11.7897   17.0429 H   0  0  0  0  0  0  0  0  0  0  0  0
  -40.2657  -13.5064   17.8662 H   0  0  0  0  0  0  0  0  0  0  0  0
  -41.9652  -13.9548   16.1651 H   0  0  0  0  0  0  0  0  0  0  0  0
  -40.6322  -15.1555   16.0754 H   0  0  0  0  0  0  0  0  0  0  0  0
  -41.4844  -14.4319   12.5976 H   0  0  0  0  0  0  0  0  0  0  0  0
  -42.7240  -14.5225   13.8945 H   0  0  0  0  0  0  0  0  0  0  0  0
  -41.4368  -15.7714   13.7935 H   0  0  0  0  0  0  0  0  0  0  0  0
  -37.6837  -10.1347   12.5888 H   0  0  0  0  0  0  0  0  0  0  0  0
  1  2  1  0  0  0  0
  1 20  1  0  0  0  0
  1 21  1  0  0  0  0
  1 22  1  0  0  0  0
  2  3  2  0  0  0  0
  2  7  1  0  0  0  0
  3  4  1  0  0  0  0
  3 23  1  0  0  0  0
  4  5  2  0  0  0  0
  4 24  1  0  0  0  0
  5  6  1  0  0  0  0
  5  8  1  0  0  0  0
  6  7  2  0  0  0  0
  6 25  1  0  0  0  0
  7 26  1  0  0  0  0
  8  9  2  0  0  0  0
  8 19  1  0  0  0  0
  9 10  1  0  0  0  0
  9 27  1  0  0  0  0
 10 11  2  0  0  0  0
 10 15  1  0  0  0  0
 11 12  1  0  0  0  0
 11 17  1  0  0  0  0
 12 13  2  0  0  0  0
 12 28  1  0  0  0  0
 13 14  1  0  0  0  0
 13 29  1  0  0  0  0
 14 15  1  0  0  0  0
 14 30  1  0  0  0  0
 14 31  1  0  0  0  0
 15 16  1  0  0  0  0
 16 32  1  0  0  0  0
 16 33  1  0  0  0  0
 16 34  1  0  0  0  0
 17 18  2  0  0  0  0
 17 19  1  0  0  0  0
 19 35  1  0  0  0  0
M  END
