4uxq_ligand
 OpenBabel08222323353D

 68 72  0  0  1  0  0  0  0  0999 V2000
    2.9280   -0.9870    6.5170 N   0  0  0  0  0  0  0  0  0  0  0  0
   -1.1290   -3.2240   21.9190 N   0  3  1  0  0  0  0  0  0  0  0  0
    1.3100   -3.7980   10.0600 C   0  0  0  0  0  0  0  0  0  0  0  0
    0.5840   -4.4930   11.0730 C   0  0  0  0  0  0  0  0  0  0  0  0
   -0.1620   -5.6410   10.8280 C   0  0  0  0  0  0  0  0  0  0  0  0
   -0.8450   -6.2510   11.8660 C   0  0  0  0  0  0  0  0  0  0  0  0
   -0.7580   -5.7500   13.1510 C   0  0  0  0  0  0  0  0  0  0  0  0
    0.6510   -3.9710   12.3460 C   0  0  0  0  0  0  0  0  0  0  0  0
   -0.9380   -3.8660   16.9090 C   0  0  0  0  0  0  0  0  0  0  0  0
   -1.3280   -4.2080   19.2150 C   0  0  0  0  0  0  0  0  0  0  0  0
   -1.1570   -1.9670   18.3820 C   0  0  0  0  0  0  0  0  0  0  0  0
   -1.5710   -2.3360   20.8320 C   0  0  0  0  0  0  0  0  0  0  0  0
    0.3010   -3.0080   22.2200 C   0  0  0  0  0  0  0  0  0  0  0  0
    0.6500   -4.0100   23.2870 C   0  0  0  0  0  0  0  0  0  0  0  0
   -2.1180   -3.1550   23.0330 C   0  0  0  0  0  0  0  0  0  0  0  0
    5.3440   -1.4890    6.3130 C   0  0  0  0  0  0  0  0  0  0  0  0
    6.3430   -2.2080    6.8350 C   0  0  0  0  0  0  0  0  0  0  0  0
    5.9620   -3.0930    7.9470 C   0  0  0  0  0  0  0  0  0  0  0  0
    4.7760   -3.2550    8.4480 N   0  0  0  0  0  0  0  0  0  0  0  0
    3.8590   -2.4990    7.8560 N   0  0  0  0  0  0  0  0  0  0  0  0
    4.0460   -1.6050    6.8380 C   0  0  0  0  0  0  0  0  0  0  0  0
    1.9840   -1.5000    7.3660 C   0  0  0  0  0  0  0  0  0  0  0  0
    2.5460   -2.4440    8.1990 C   0  0  0  0  0  0  0  0  0  0  0  0
    1.9040   -3.2000    9.2090 C   0  0  0  0  0  0  0  0  0  0  0  0
   -0.0100   -4.6100   13.3690 C   0  0  0  0  0  0  0  0  0  0  0  0
   -0.2300   -6.2350    9.4570 C   0  0  0  0  0  0  0  0  0  0  0  0
    0.0990   -3.9680   14.6820 C   0  0  0  0  0  0  0  0  0  0  0  0
    0.9150   -3.0650   14.7990 O   0  0  0  0  0  0  0  0  0  0  0  0
   -0.7730   -4.4400   15.6350 N   0  0  0  0  0  0  0  0  0  0  0  0
   -1.1070   -4.7320   17.9640 C   0  0  0  0  0  0  0  0  0  0  0  0
   -1.3510   -2.8420   19.4390 C   0  0  0  0  0  0  0  0  0  0  0  0
   -0.9660   -2.4990   17.1180 C   0  0  0  0  0  0  0  0  0  0  0  0
   -1.1670   -0.4690   18.5630 C   0  0  0  0  0  0  0  0  0  0  0  0
   -0.9870    0.1800   17.3880 F   0  0  0  0  0  0  0  0  0  0  0  0
   -2.2980    0.0510   19.1430 F   0  0  0  0  0  0  0  0  0  0  0  0
   -0.1470   -0.0270   19.3390 F   0  0  0  0  0  0  0  0  0  0  0  0
   -1.6400   -3.9270   24.2580 C   0  0  0  0  0  0  0  0  0  0  0  0
    0.3200   -4.3240   25.6810 C   0  0  0  0  0  0  0  0  0  0  0  0
   -0.1920   -3.6560   24.4640 N   0  3  1  0  0  0  0  0  0  0  0  0
   -1.1840   -4.1681   21.5703 H   0  0  0  0  0  0  0  0  0  0  0  0
   -1.4520   -7.1274   11.6697 H   0  0  0  0  0  0  0  0  0  0  0  0
   -1.2670   -6.2423   13.9717 H   0  0  0  0  0  0  0  0  0  0  0  0
    1.2179   -3.0675   12.5392 H   0  0  0  0  0  0  0  0  0  0  0  0
   -1.4886   -4.8821   20.0486 H   0  0  0  0  0  0  0  0  0  0  0  0
   -1.0289   -1.3843   20.9337 H   0  0  0  0  0  0  0  0  0  0  0  0
   -2.6492   -2.1593   20.9593 H   0  0  0  0  0  0  0  0  0  0  0  0
    0.4650   -1.9842   22.5874 H   0  0  0  0  0  0  0  0  0  0  0  0
    0.9117   -3.1772   21.3209 H   0  0  0  0  0  0  0  0  0  0  0  0
    1.7172   -3.9403   23.5442 H   0  0  0  0  0  0  0  0  0  0  0  0
    0.4211   -5.0300   22.9448 H   0  0  0  0  0  0  0  0  0  0  0  0
   -3.0714   -3.5838   22.6908 H   0  0  0  0  0  0  0  0  0  0  0  0
   -2.2687   -2.1016   23.3116 H   0  0  0  0  0  0  0  0  0  0  0  0
    5.5364   -0.8134    5.4808 H   0  0  0  0  0  0  0  0  0  0  0  0
    7.3648   -2.1433    6.4640 H   0  0  0  0  0  0  0  0  0  0  0  0
    6.7631   -3.6759    8.3991 H   0  0  0  0  0  0  0  0  0  0  0  0
    0.9362   -1.2038    7.3811 H   0  0  0  0  0  0  0  0  0  0  0  0
    0.3668   -5.6249    8.7631 H   0  0  0  0  0  0  0  0  0  0  0  0
   -1.2764   -6.2574    9.1185 H   0  0  0  0  0  0  0  0  0  0  0  0
    0.1696   -7.2596    9.4810 H   0  0  0  0  0  0  0  0  0  0  0  0
   -1.3250   -5.2424   15.4080 H   0  0  0  0  0  0  0  0  0  0  0  0
   -1.0667   -5.8045   17.8120 H   0  0  0  0  0  0  0  0  0  0  0  0
   -0.8357   -1.8303   16.2748 H   0  0  0  0  0  0  0  0  0  0  0  0
   -1.7949   -5.0044   24.0991 H   0  0  0  0  0  0  0  0  0  0  0  0
   -2.2060   -3.6018   25.1434 H   0  0  0  0  0  0  0  0  0  0  0  0
    1.3906   -4.1007   25.7989 H   0  0  0  0  0  0  0  0  0  0  0  0
    0.1802   -5.4112   25.5889 H   0  0  0  0  0  0  0  0  0  0  0  0
   -0.2301   -3.9567   26.5599 H   0  0  0  0  0  0  0  0  0  0  0  0
   -0.0994   -2.6622   24.6047 H   0  0  0  0  0  0  0  0  0  0  0  0
  1 21  2  0  0  0  0
  2 13  1  0  0  0  0
  2 15  1  0  0  0  0
  2 40  1  6  0  0  0
  3 24  3  0  0  0  0
  4  3  1  0  0  0  0
  4  5  2  0  0  0  0
  5 26  1  0  0  0  0
  6  5  1  0  0  0  0
  6 41  1  0  0  0  0
  7  6  2  0  0  0  0
  7 42  1  0  0  0  0
  8  4  1  0  0  0  0
  8 43  1  0  0  0  0
  9 30  2  0  0  0  0
  9 32  1  0  0  0  0
 10 31  2  0  0  0  0
 10 44  1  0  0  0  0
 11 31  1  0  0  0  0
 11 33  1  0  0  0  0
 12  2  1  0  0  0  0
 12 45  1  0  0  0  0
 12 46  1  0  0  0  0
 13 14  1  0  0  0  0
 13 47  1  0  0  0  0
 13 48  1  0  0  0  0
 14 39  1  0  0  0  0
 14 49  1  0  0  0  0
 14 50  1  0  0  0  0
 15 37  1  0  0  0  0
 15 51  1  0  0  0  0
 15 52  1  0  0  0  0
 16 17  2  0  0  0  0
 16 53  1  0  0  0  0
 17 54  1  0  0  0  0
 18 17  1  0  0  0  0
 18 55  1  0  0  0  0
 19 18  2  0  0  0  0
 20 19  1  0  0  0  0
 20 21  1  0  0  0  0
 21 16  1  0  0  0  0
 22  1  1  0  0  0  0
 22 56  1  0  0  0  0
 23 20  1  0  0  0  0
 23 22  2  0  0  0  0
 24 23  1  0  0  0  0
 25  7  1  0  0  0  0
 25  8  2  0  0  0  0
 26 57  1  0  0  0  0
 26 58  1  0  0  0  0
 26 59  1  0  0  0  0
 27 25  1  0  0  0  0
 27 28  2  0  0  0  0
 27 29  1  0  0  0  0
 29  9  1  0  0  0  0
 29 60  1  0  0  0  0
 30 10  1  0  0  0  0
 30 61  1  0  0  0  0
 31 12  1  0  0  0  0
 32 11  2  0  0  0  0
 32 62  1  0  0  0  0
 33 34  1  0  0  0  0
 33 35  1  0  0  0  0
 33 36  1  0  0  0  0
 37 39  1  0  0  0  0
 37 63  1  0  0  0  0
 37 64  1  0  0  0  0
 38 65  1  0  0  0  0
 38 66  1  0  0  0  0
 38 67  1  0  0  0  0
 39 38  1  0  0  0  0
 39 68  1  1  0  0  0
M  CHG  2   2   1  39   1
M  END
