4uy1_ligand
 OpenBabel08222323353D

 26 27  0  0  0  0  0  0  0  0999 V2000
    0.0720   -4.5100   -3.6340 C   0  0  0  0  0  0  0  0  0  0  0  0
    0.4990   -3.9360   -2.3460 C   0  0  0  0  0  0  0  0  0  0  0  0
   -0.3070   -3.4180   -1.3600 C   0  0  0  0  0  0  0  0  0  0  0  0
    0.4200   -2.9370   -0.2360 C   0  0  0  0  0  0  0  0  0  0  0  0
    1.7860   -3.0950   -0.3630 C   0  0  0  0  0  0  0  0  0  0  0  0
    2.8280   -2.7160    0.5940 C   0  0  0  0  0  0  0  0  0  0  0  0
    2.1600   -3.8190   -1.8920 S   0  0  0  0  0  0  0  0  0  0  0  0
   -0.3080   -2.3550    0.8660 C   0  0  0  0  0  0  0  0  0  0  0  0
    0.0830   -1.2250    1.6350 C   0  0  0  0  0  0  0  0  0  0  0  0
   -0.9630   -1.0610    2.5220 C   0  0  0  0  0  0  0  0  0  0  0  0
   -1.8540   -2.0550    2.2280 N   0  0  0  0  0  0  0  0  0  0  0  0
   -1.4910   -2.8590    1.2210 N   0  0  0  0  0  0  0  0  0  0  0  0
   -1.2300   -0.1270    3.5650 C   0  0  0  0  0  0  0  0  0  0  0  0
   -2.1280   -0.3330    4.3550 O   0  0  0  0  0  0  0  0  0  0  0  0
   -0.4300    0.9960    3.6120 N   0  0  0  0  0  0  0  0  0  0  0  0
   -1.0254   -4.4800   -3.7029 H   0  0  0  0  0  0  0  0  0  0  0  0
    0.4153   -5.5528   -3.7026 H   0  0  0  0  0  0  0  0  0  0  0  0
    0.5072   -3.9257   -4.4581 H   0  0  0  0  0  0  0  0  0  0  0  0
   -1.3929   -3.3798   -1.4323 H   0  0  0  0  0  0  0  0  0  0  0  0
    3.8146   -2.9802    0.1856 H   0  0  0  0  0  0  0  0  0  0  0  0
    2.6681   -3.2515    1.5414 H   0  0  0  0  0  0  0  0  0  0  0  0
    2.7840   -1.6317    0.7737 H   0  0  0  0  0  0  0  0  0  0  0  0
    0.9910   -0.6303    1.5459 H   0  0  0  0  0  0  0  0  0  0  0  0
   -1.9967   -3.6626    0.8217 H   0  0  0  0  0  0  0  0  0  0  0  0
   -0.5746    1.6834    4.3237 H   0  0  0  0  0  0  0  0  0  0  0  0
    0.2944    1.1226    2.9344 H   0  0  0  0  0  0  0  0  0  0  0  0
  1  2  1  0  0  0  0
  1 16  1  0  0  0  0
  1 17  1  0  0  0  0
  1 18  1  0  0  0  0
  2  3  2  0  0  0  0
  2  7  1  0  0  0  0
  3  4  1  0  0  0  0
  3 19  1  0  0  0  0
  4  5  2  0  0  0  0
  4  8  1  0  0  0  0
  5  6  1  0  0  0  0
  5  7  1  0  0  0  0
  6 20  1  0  0  0  0
  6 21  1  0  0  0  0
  6 22  1  0  0  0  0
  8  9  2  0  0  0  0
  8 12  1  0  0  0  0
  9 10  1  0  0  0  0
  9 23  1  0  0  0  0
 10 11  2  0  0  0  0
 10 13  1  0  0  0  0
 11 12  1  0  0  0  0
 12 24  1  0  0  0  0
 13 14  2  0  0  0  0
 13 15  1  0  0  0  0
 15 25  1  0  0  0  0
 15 26  1  0  0  0  0
M  END
