4uyh_ligand
 OpenBabel08222323353D

 70 74  0  0  1  0  0  0  0  0999 V2000
   21.4990    8.4690   -8.0190 O   0  0  0  0  0  0  0  0  0  0  0  0
   20.3860    8.9080   -8.2690 C   0  0  0  0  0  0  0  0  0  0  0  0
   19.3060    8.9610   -7.2210 C   0  0  0  0  0  0  0  0  0  0  0  0
   20.0990    9.3580   -9.5280 N   0  0  0  0  0  0  0  0  0  0  0  0
   21.2150    9.3300  -10.5200 C   0  0  1  0  0  0  0  0  0  0  0  0
   21.2310    8.0140  -11.2870 C   0  0  0  0  0  0  0  0  0  0  0  0
   18.8120    9.7850   -9.9860 C   0  0  0  0  0  0  0  0  0  0  0  0
   18.8320   10.9190  -10.7350 C   0  0  0  0  0  0  0  0  0  0  0  0
   20.1260   11.6110  -11.0650 C   0  0  2  0  0  0  0  0  0  0  0  0
   19.9270   12.5740  -12.1400 N   0  0  0  0  0  0  0  0  0  0  0  0
   19.6410   13.8900  -11.9090 C   0  0  0  0  0  0  0  0  0  0  0  0
   19.6720   14.7730  -12.9930 C   0  0  0  0  0  0  0  0  0  0  0  0
   19.4100   16.1290  -12.8080 C   0  0  0  0  0  0  0  0  0  0  0  0
   19.1190   16.6150  -11.5350 C   0  0  0  0  0  0  0  0  0  0  0  0
   19.0900   15.7490  -10.4440 C   0  0  0  0  0  0  0  0  0  0  0  0
   19.3470   14.3920  -10.6320 C   0  0  0  0  0  0  0  0  0  0  0  0
   21.1810   10.5700  -11.4200 C   0  0  0  0  0  0  0  0  0  0  0  0
   17.6280    9.1010   -9.6850 C   0  0  0  0  0  0  0  0  0  0  0  0
   16.4300    9.5970  -10.1890 C   0  0  0  0  0  0  0  0  0  0  0  0
   16.4200   10.7570  -10.9830 C   0  0  0  0  0  0  0  0  0  0  0  0
   17.6340   11.4100  -11.2640 C   0  0  0  0  0  0  0  0  0  0  0  0
   15.1430   11.2750  -11.5570 C   0  0  0  0  0  0  0  0  0  0  0  0
   13.9080   11.0600  -10.9360 C   0  0  0  0  0  0  0  0  0  0  0  0
   12.7330   11.5390  -11.5120 C   0  0  0  0  0  0  0  0  0  0  0  0
   12.7880   12.2180  -12.7280 C   0  0  0  0  0  0  0  0  0  0  0  0
   14.0060   12.4260  -13.3630 C   0  0  0  0  0  0  0  0  0  0  0  0
   15.1740   11.9500  -12.7850 C   0  0  0  0  0  0  0  0  0  0  0  0
   11.5330   12.7610  -13.3540 C   0  0  0  0  0  0  0  0  0  0  0  0
   11.2160   14.1010  -12.8650 N   0  3  0  0  0  0  0  0  0  0  0  0
   11.9470   15.1260  -13.5980 C   0  0  0  0  0  0  0  0  0  0  0  0
   11.7740   16.4230  -12.8100 C   0  0  0  0  0  0  0  0  0  0  0  0
   10.3040   16.8240  -12.7500 C   0  0  0  0  0  0  0  0  0  0  0  0
    9.4500   15.6710  -12.2380 C   0  0  0  0  0  0  0  0  0  0  0  0
    9.8160   14.3710  -12.9440 C   0  0  0  0  0  0  0  0  0  0  0  0
   18.3916    9.3886   -7.6581 H   0  0  0  0  0  0  0  0  0  0  0  0
   19.6397    9.5892   -6.3820 H   0  0  0  0  0  0  0  0  0  0  0  0
   19.0976    7.9440   -6.8574 H   0  0  0  0  0  0  0  0  0  0  0  0
   22.1565    9.3768   -9.9531 H   0  0  0  0  0  0  0  0  0  0  0  0
   22.0609    8.0205  -12.0090 H   0  0  0  0  0  0  0  0  0  0  0  0
   20.2789    7.8909  -11.8239 H   0  0  0  0  0  0  0  0  0  0  0  0
   21.3649    7.1803  -10.5820 H   0  0  0  0  0  0  0  0  0  0  0  0
   20.4679   12.1589  -10.1746 H   0  0  0  0  0  0  0  0  0  0  0  0
   20.0051   12.2494  -13.1144 H   0  0  0  0  0  0  0  0  0  0  0  0
   19.9016   14.3998  -13.9845 H   0  0  0  0  0  0  0  0  0  0  0  0
   19.4326   16.8058  -13.6545 H   0  0  0  0  0  0  0  0  0  0  0  0
   18.9146   17.6700  -11.3931 H   0  0  0  0  0  0  0  0  0  0  0  0
   18.8685   16.1289   -9.4532 H   0  0  0  0  0  0  0  0  0  0  0  0
   19.3195   13.7179   -9.7835 H   0  0  0  0  0  0  0  0  0  0  0  0
   20.9930   10.2353  -12.4508 H   0  0  0  0  0  0  0  0  0  0  0  0
   22.1669   11.0549  -11.3659 H   0  0  0  0  0  0  0  0  0  0  0  0
   17.6444    8.2060   -9.0736 H   0  0  0  0  0  0  0  0  0  0  0  0
   15.4996    9.0865   -9.9684 H   0  0  0  0  0  0  0  0  0  0  0  0
   17.6409   12.2943  -11.8909 H   0  0  0  0  0  0  0  0  0  0  0  0
   13.8647   10.5164   -9.9992 H   0  0  0  0  0  0  0  0  0  0  0  0
   11.7811   11.3843  -11.0169 H   0  0  0  0  0  0  0  0  0  0  0  0
   14.0437   12.9582  -14.3066 H   0  0  0  0  0  0  0  0  0  0  0  0
   16.1216   12.1019  -13.2890 H   0  0  0  0  0  0  0  0  0  0  0  0
   10.6964   12.0881  -13.1149 H   0  0  0  0  0  0  0  0  0  0  0  0
   11.6692   12.8035  -14.4447 H   0  0  0  0  0  0  0  0  0  0  0  0
   11.4920   14.1486  -11.8967 H   0  0  0  0  0  0  0  0  0  0  0  0
   11.5332   15.2379  -14.6110 H   0  0  0  0  0  0  0  0  0  0  0  0
   13.0123   14.8600  -13.6644 H   0  0  0  0  0  0  0  0  0  0  0  0
   12.3470   17.2233  -13.3011 H   0  0  0  0  0  0  0  0  0  0  0  0
   12.1507   16.2771  -11.7869 H   0  0  0  0  0  0  0  0  0  0  0  0
    9.9650   17.1040  -13.7583 H   0  0  0  0  0  0  0  0  0  0  0  0
   10.1920   17.6840  -12.0734 H   0  0  0  0  0  0  0  0  0  0  0  0
    8.3898   15.8967  -12.4251 H   0  0  0  0  0  0  0  0  0  0  0  0
    9.6145   15.5528  -11.1568 H   0  0  0  0  0  0  0  0  0  0  0  0
    9.2664   13.5429  -12.4726 H   0  0  0  0  0  0  0  0  0  0  0  0
    9.5272   14.4472  -14.0027 H   0  0  0  0  0  0  0  0  0  0  0  0
  1  2  2  0  0  0  0
  2  3  1  0  0  0  0
  2  4  1  0  0  0  0
  3 35  1  0  0  0  0
  3 36  1  0  0  0  0
  3 37  1  0  0  0  0
  4  5  1  0  0  0  0
  4  7  1  0  0  0  0
  5  6  1  0  0  0  0
  5 17  1  0  0  0  0
  5 38  1  1  0  0  0
  6 39  1  0  0  0  0
  6 40  1  0  0  0  0
  6 41  1  0  0  0  0
  7  8  2  0  0  0  0
  7 18  1  0  0  0  0
  8  9  1  0  0  0  0
  8 21  1  0  0  0  0
  9 10  1  0  0  0  0
  9 17  1  0  0  0  0
  9 42  1  1  0  0  0
 10 11  1  0  0  0  0
 10 43  1  0  0  0  0
 11 12  2  0  0  0  0
 11 16  1  0  0  0  0
 12 13  1  0  0  0  0
 12 44  1  0  0  0  0
 13 14  2  0  0  0  0
 13 45  1  0  0  0  0
 14 15  1  0  0  0  0
 14 46  1  0  0  0  0
 15 16  2  0  0  0  0
 15 47  1  0  0  0  0
 16 48  1  0  0  0  0
 17 49  1  0  0  0  0
 17 50  1  0  0  0  0
 18 19  2  0  0  0  0
 18 51  1  0  0  0  0
 19 20  1  0  0  0  0
 19 52  1  0  0  0  0
 20 21  2  0  0  0  0
 20 22  1  0  0  0  0
 21 53  1  0  0  0  0
 22 23  2  0  0  0  0
 22 27  1  0  0  0  0
 23 24  1  0  0  0  0
 23 54  1  0  0  0  0
 24 25  2  0  0  0  0
 24 55  1  0  0  0  0
 25 26  1  0  0  0  0
 25 28  1  0  0  0  0
 26 27  2  0  0  0  0
 26 56  1  0  0  0  0
 27 57  1  0  0  0  0
 28 29  1  0  0  0  0
 28 58  1  0  0  0  0
 28 59  1  0  0  0  0
 29 30  1  0  0  0  0
 29 34  1  0  0  0  0
 29 60  1  0  0  0  0
 30 31  1  0  0  0  0
 30 61  1  0  0  0  0
 30 62  1  0  0  0  0
 31 32  1  0  0  0  0
 31 63  1  0  0  0  0
 31 64  1  0  0  0  0
 32 33  1  0  0  0  0
 32 65  1  0  0  0  0
 32 66  1  0  0  0  0
 33 34  1  0  0  0  0
 33 67  1  0  0  0  0
 33 68  1  0  0  0  0
 34 69  1  0  0  0  0
 34 70  1  0  0  0  0
M  CHG  1  29   1
M  END
