4v04_ligand
 OpenBabel08222323353D

 68 72  0  0  1  0  0  0  0  0999 V2000
   87.3620   -0.8800    9.4030 N   0  0  0  0  0  0  0  0  0  0  0  0
   85.9390    0.6900   25.2760 N   0  3  1  0  0  0  0  0  0  0  0  0
   88.3420    1.6940   13.3250 C   0  0  0  0  0  0  0  0  0  0  0  0
   88.8380    2.0420   14.6170 C   0  0  0  0  0  0  0  0  0  0  0  0
   89.9180    2.9050   14.7390 C   0  0  0  0  0  0  0  0  0  0  0  0
   90.4040    3.1610   16.0120 C   0  0  0  0  0  0  0  0  0  0  0  0
   89.8570    2.5550   17.1260 C   0  0  0  0  0  0  0  0  0  0  0  0
   88.3010    1.4220   15.7220 C   0  0  0  0  0  0  0  0  0  0  0  0
   88.0860    0.8470   20.6330 C   0  0  0  0  0  0  0  0  0  0  0  0
   87.6090    1.2560   22.9390 C   0  0  0  0  0  0  0  0  0  0  0  0
   87.0070   -0.8390   21.9710 C   0  0  0  0  0  0  0  0  0  0  0  0
   86.4490   -0.4200   24.4190 C   0  0  0  0  0  0  0  0  0  0  0  0
   84.6120    1.1880   24.8200 C   0  0  0  0  0  0  0  0  0  0  0  0
   84.1980    2.3870   25.6430 C   0  0  0  0  0  0  0  0  0  0  0  0
   85.8570    0.3150   26.6980 C   0  0  0  0  0  0  0  0  0  0  0  0
   85.5710    0.3820    8.2110 C   0  0  0  0  0  0  0  0  0  0  0  0
   84.8410    1.4950    8.3090 C   0  0  0  0  0  0  0  0  0  0  0  0
   85.0460    2.3900    9.4020 C   0  0  0  0  0  0  0  0  0  0  0  0
   85.9110    2.2260   10.3550 N   0  0  0  0  0  0  0  0  0  0  0  0
   86.6440    1.0680   10.2180 N   0  0  0  0  0  0  0  0  0  0  0  0
   86.5180    0.1260    9.2110 C   0  0  0  0  0  0  0  0  0  0  0  0
   88.0290   -0.6000   10.5640 C   0  0  0  0  0  0  0  0  0  0  0  0
   87.6140    0.6040   11.0650 C   0  0  0  0  0  0  0  0  0  0  0  0
   88.0130    1.2500   12.2600 C   0  0  0  0  0  0  0  0  0  0  0  0
   88.8020    1.6770   16.9960 C   0  0  0  0  0  0  0  0  0  0  0  0
   90.5340    3.5470   13.5460 C   0  0  0  0  0  0  0  0  0  0  0  0
   88.1530    0.9510   18.1330 C   0  0  0  0  0  0  0  0  0  0  0  0
   87.2810    0.1370   17.9070 O   0  0  0  0  0  0  0  0  0  0  0  0
   88.5990    1.2740   19.4050 N   0  0  0  0  0  0  0  0  0  0  0  0
   88.1230    1.6790   21.7270 C   0  0  0  0  0  0  0  0  0  0  0  0
   87.0300    0.0040   23.0790 C   0  0  0  0  0  0  0  0  0  0  0  0
   87.5400   -0.4090   20.7670 C   0  0  0  0  0  0  0  0  0  0  0  0
   86.3940   -2.2090   22.0080 C   0  0  0  0  0  0  0  0  0  0  0  0
   85.0870   -2.1510   22.3780 F   0  0  0  0  0  0  0  0  0  0  0  0
   87.0430   -3.0830   22.8340 F   0  0  0  0  0  0  0  0  0  0  0  0
   86.3740   -2.8420   20.8100 F   0  0  0  0  0  0  0  0  0  0  0  0
   85.4470    1.4960   27.5490 C   0  0  0  0  0  0  0  0  0  0  0  0
   83.6600    3.1550   27.9290 C   0  0  0  0  0  0  0  0  0  0  0  0
   84.1430    2.0350   27.0950 N   0  3  1  0  0  0  0  0  0  0  0  0
   86.5958    1.4506   25.1979 H   0  0  0  0  0  0  0  0  0  0  0  0
   91.2306    3.8513   16.1355 H   0  0  0  0  0  0  0  0  0  0  0  0
   90.2598    2.7711   18.1089 H   0  0  0  0  0  0  0  0  0  0  0  0
   87.4783    0.7269   15.5992 H   0  0  0  0  0  0  0  0  0  0  0  0
   87.6598    1.9166   23.7970 H   0  0  0  0  0  0  0  0  0  0  0  0
   85.6141   -1.1091   24.2240 H   0  0  0  0  0  0  0  0  0  0  0  0
   87.2361   -0.9466   24.9786 H   0  0  0  0  0  0  0  0  0  0  0  0
   83.8638    0.3902   24.9370 H   0  0  0  0  0  0  0  0  0  0  0  0
   84.6762    1.4780   23.7609 H   0  0  0  0  0  0  0  0  0  0  0  0
   83.2038    2.7248   25.3151 H   0  0  0  0  0  0  0  0  0  0  0  0
   84.9277    3.1966   25.4947 H   0  0  0  0  0  0  0  0  0  0  0  0
   86.8415   -0.0443   27.0323 H   0  0  0  0  0  0  0  0  0  0  0  0
   85.1143   -0.4878   26.8157 H   0  0  0  0  0  0  0  0  0  0  0  0
   85.4345   -0.3066    7.3785 H   0  0  0  0  0  0  0  0  0  0  0  0
   84.0886    1.7205    7.5547 H   0  0  0  0  0  0  0  0  0  0  0  0
   84.4253    3.2840    9.4390 H   0  0  0  0  0  0  0  0  0  0  0  0
   88.7803   -1.2413   11.0225 H   0  0  0  0  0  0  0  0  0  0  0  0
   90.0074    3.2162   12.6387 H   0  0  0  0  0  0  0  0  0  0  0  0
   91.5935    3.2588   13.4806 H   0  0  0  0  0  0  0  0  0  0  0  0
   90.4563    4.6405   13.6369 H   0  0  0  0  0  0  0  0  0  0  0  0
   89.3860    1.8893   19.4497 H   0  0  0  0  0  0  0  0  0  0  0  0
   88.5561    2.6688   21.6392 H   0  0  0  0  0  0  0  0  0  0  0  0
   87.5267   -1.0758   19.9125 H   0  0  0  0  0  0  0  0  0  0  0  0
   86.2116    2.2828   27.4689 H   0  0  0  0  0  0  0  0  0  0  0  0
   85.3605    1.1742   28.5973 H   0  0  0  0  0  0  0  0  0  0  0  0
   82.6929    3.5092   27.5427 H   0  0  0  0  0  0  0  0  0  0  0  0
   84.3904    3.9769   27.8980 H   0  0  0  0  0  0  0  0  0  0  0  0
   83.5370    2.8127   28.9671 H   0  0  0  0  0  0  0  0  0  0  0  0
   83.4685    1.2924   27.1933 H   0  0  0  0  0  0  0  0  0  0  0  0
  1 21  2  0  0  0  0
  2 13  1  0  0  0  0
  2 15  1  0  0  0  0
  2 40  1  6  0  0  0
  3 24  3  0  0  0  0
  4  3  1  0  0  0  0
  4  5  2  0  0  0  0
  5 26  1  0  0  0  0
  6  5  1  0  0  0  0
  6 41  1  0  0  0  0
  7  6  2  0  0  0  0
  7 42  1  0  0  0  0
  8  4  1  0  0  0  0
  8 43  1  0  0  0  0
  9 30  2  0  0  0  0
  9 32  1  0  0  0  0
 10 31  2  0  0  0  0
 10 44  1  0  0  0  0
 11 31  1  0  0  0  0
 11 33  1  0  0  0  0
 12  2  1  0  0  0  0
 12 45  1  0  0  0  0
 12 46  1  0  0  0  0
 13 14  1  0  0  0  0
 13 47  1  0  0  0  0
 13 48  1  0  0  0  0
 14 39  1  0  0  0  0
 14 49  1  0  0  0  0
 14 50  1  0  0  0  0
 15 37  1  0  0  0  0
 15 51  1  0  0  0  0
 15 52  1  0  0  0  0
 16 17  2  0  0  0  0
 16 53  1  0  0  0  0
 17 54  1  0  0  0  0
 18 17  1  0  0  0  0
 18 55  1  0  0  0  0
 19 18  2  0  0  0  0
 20 19  1  0  0  0  0
 20 21  1  0  0  0  0
 21 16  1  0  0  0  0
 22  1  1  0  0  0  0
 22 56  1  0  0  0  0
 23 20  1  0  0  0  0
 23 22  2  0  0  0  0
 24 23  1  0  0  0  0
 25  7  1  0  0  0  0
 25  8  2  0  0  0  0
 26 57  1  0  0  0  0
 26 58  1  0  0  0  0
 26 59  1  0  0  0  0
 27 25  1  0  0  0  0
 27 28  2  0  0  0  0
 27 29  1  0  0  0  0
 29  9  1  0  0  0  0
 29 60  1  0  0  0  0
 30 10  1  0  0  0  0
 30 61  1  0  0  0  0
 31 12  1  0  0  0  0
 32 11  2  0  0  0  0
 32 62  1  0  0  0  0
 33 34  1  0  0  0  0
 33 35  1  0  0  0  0
 33 36  1  0  0  0  0
 37 39  1  0  0  0  0
 37 63  1  0  0  0  0
 37 64  1  0  0  0  0
 38 65  1  0  0  0  0
 38 66  1  0  0  0  0
 38 67  1  0  0  0  0
 39 38  1  0  0  0  0
 39 68  1  1  0  0  0
M  CHG  2   2   1  39   1
M  END
