4w4s_ligand
 OpenBabel08222323353D

 46 49  0  0  1  0  0  0  0  0999 V2000
    5.0190  -11.8750   -4.1660 C   0  0  0  0  0  0  0  0  0  0  0  0
    6.2720  -11.4390   -3.6740 C   0  0  0  0  0  0  0  0  0  0  0  0
    6.3360  -10.7360   -2.4580 C   0  0  0  0  0  0  0  0  0  0  0  0
    5.1500  -10.4710   -1.7400 C   0  0  0  0  0  0  0  0  0  0  0  0
    3.8990  -10.9080   -2.2380 C   0  0  0  0  0  0  0  0  0  0  0  0
    3.8290  -11.6110   -3.4570 C   0  0  0  0  0  0  0  0  0  0  0  0
    2.7780  -12.1420   -4.1610 O   0  0  0  0  0  0  0  0  0  0  0  0
    3.2550  -12.7360   -5.2880 C   0  0  0  0  0  0  0  0  0  0  0  0
    4.6680  -12.5680   -5.2920 C   0  0  0  0  0  0  0  0  0  0  0  0
    5.4460  -13.0810   -6.3370 C   0  0  0  0  0  0  0  0  0  0  0  0
    4.8480  -13.7690   -7.3860 C   0  0  0  0  0  0  0  0  0  0  0  0
    3.4460  -13.9540   -7.4050 C   0  0  0  0  0  0  0  0  0  0  0  0
    2.6660  -13.4680   -6.4220 C   0  0  2  0  0  0  0  0  0  0  0  0
    1.6480  -12.7920   -7.2280 C   0  0  0  0  0  0  0  0  0  0  0  0
    0.3310  -12.6510   -6.7090 C   0  0  0  0  0  0  0  0  0  0  0  0
    1.9100  -12.2530   -8.5480 C   0  0  0  0  0  0  0  0  0  0  0  0
    0.8970  -11.6180   -9.2910 C   0  0  0  0  0  0  0  0  0  0  0  0
   -0.3880  -11.4920   -8.7590 C   0  0  0  0  0  0  0  0  0  0  0  0
   -0.6730  -12.0010   -7.4830 C   0  0  0  0  0  0  0  0  0  0  0  0
   -2.0710  -11.8480   -6.9380 C   0  0  0  0  0  0  0  0  0  0  0  0
   -3.3430  -12.2940   -6.3570 C   0  0  0  0  0  0  0  0  0  0  0  0
   -4.1170  -10.8320   -5.4670 P   0  0  0  0  0  0  0  0  0  0  0  0
   -5.5960  -10.6390   -6.0810 O   0  0  0  0  0  1  0  0  0  0  0  0
   -4.2700  -11.2630   -3.9330 O   0  0  0  0  0  1  0  0  0  0  0  0
   -3.3080   -9.5950   -5.5930 O   0  0  0  0  0  0  0  0  0  0  0  0
   -4.4590  -12.9370   -7.7130 P   0  0  0  0  0  0  0  0  0  0  0  0
   -4.4320  -11.8250   -8.8720 O   0  0  0  0  0  1  0  0  0  0  0  0
   -3.7790  -14.2650   -8.2990 O   0  0  0  0  0  1  0  0  0  0  0  0
   -5.8360  -13.1950   -7.2400 O   0  0  0  0  0  0  0  0  0  0  0  0
   -3.0980  -13.3370   -5.4240 O   0  0  0  0  0  0  0  0  0  0  0  0
    7.1781  -11.6460   -4.2318 H   0  0  0  0  0  0  0  0  0  0  0  0
    7.2919  -10.3990   -2.0736 H   0  0  0  0  0  0  0  0  0  0  0  0
    5.1974   -9.9298   -0.8020 H   0  0  0  0  0  0  0  0  0  0  0  0
    2.9928  -10.7013   -1.6802 H   0  0  0  0  0  0  0  0  0  0  0  0
    6.5258  -12.9401   -6.3277 H   0  0  0  0  0  0  0  0  0  0  0  0
    5.4598  -14.1663   -8.1946 H   0  0  0  0  0  0  0  0  0  0  0  0
    3.2750  -15.0403   -7.4305 H   0  0  0  0  0  0  0  0  0  0  0  0
    3.0846  -13.5038   -8.3413 H   0  0  0  0  0  0  0  0  0  0  0  0
    2.1832  -14.3325   -5.9429 H   0  0  0  0  0  0  0  0  0  0  0  0
    0.0915  -13.0379   -5.7251 H   0  0  0  0  0  0  0  0  0  0  0  0
    2.9044  -12.3406   -8.9707 H   0  0  0  0  0  0  0  0  0  0  0  0
    1.1148  -11.2261  -10.2779 H   0  0  0  0  0  0  0  0  0  0  0  0
   -1.1658  -11.0006   -9.3323 H   0  0  0  0  0  0  0  0  0  0  0  0
   -2.4988  -11.3420   -7.8160 H   0  0  0  0  0  0  0  0  0  0  0  0
   -1.8295  -11.1021   -6.1664 H   0  0  0  0  0  0  0  0  0  0  0  0
   -2.7065  -14.0768   -5.8733 H   0  0  0  0  0  0  0  0  0  0  0  0
  1  2  2  0  0  0  0
  1  6  1  0  0  0  0
  1  9  1  0  0  0  0
  2  3  1  0  0  0  0
  2 31  1  0  0  0  0
  3  4  2  0  0  0  0
  3 32  1  0  0  0  0
  4  5  1  0  0  0  0
  4 33  1  0  0  0  0
  5  6  2  0  0  0  0
  5 34  1  0  0  0  0
  6  7  1  0  0  0  0
  7  8  1  0  0  0  0
  8  9  2  0  0  0  0
  8 13  1  0  0  0  0
  9 10  1  0  0  0  0
 10 11  2  0  0  0  0
 10 35  1  0  0  0  0
 11 12  1  0  0  0  0
 11 36  1  0  0  0  0
 12 13  1  0  0  0  0
 12 37  1  0  0  0  0
 12 38  1  0  0  0  0
 13 14  1  0  0  0  0
 13 39  1  1  0  0  0
 14 15  2  0  0  0  0
 14 16  1  0  0  0  0
 15 19  1  0  0  0  0
 15 40  1  0  0  0  0
 16 17  2  0  0  0  0
 16 41  1  0  0  0  0
 17 18  1  0  0  0  0
 17 42  1  0  0  0  0
 18 19  2  0  0  0  0
 18 43  1  0  0  0  0
 19 20  1  0  0  0  0
 20 21  1  0  0  0  0
 20 44  1  0  0  0  0
 20 45  1  0  0  0  0
 21 22  1  0  0  0  0
 21 26  1  0  0  0  0
 21 30  1  0  0  0  0
 22 23  1  0  0  0  0
 22 24  1  0  0  0  0
 22 25  2  0  0  0  0
 26 27  1  0  0  0  0
 26 28  1  0  0  0  0
 26 29  2  0  0  0  0
 30 46  1  0  0  0  0
M  END
