4w4v_ligand
 OpenBabel08222323353D

 51 54  0  0  0  0  0  0  0  0999 V2000
   76.5000   76.8110   29.7190 C   0  0  0  0  0  0  0  0  0  0  0  0
   72.8410   81.8170   32.9890 C   0  0  0  0  0  0  0  0  0  0  0  0
   75.4440   77.5000   30.3140 C   0  0  0  0  0  0  0  0  0  0  0  0
   74.9020   77.0440   31.5240 C   0  0  0  0  0  0  0  0  0  0  0  0
   75.4020   75.8790   32.0960 C   0  0  0  0  0  0  0  0  0  0  0  0
   72.6370   79.3600   32.8820 C   0  0  0  0  0  0  0  0  0  0  0  0
   73.8400   79.0520   32.2770 C   0  0  0  0  0  0  0  0  0  0  0  0
   71.0210   82.3950   36.9980 C   0  0  0  0  0  0  0  0  0  0  0  0
   69.9560   83.3080   37.0140 C   0  0  0  0  0  0  0  0  0  0  0  0
   71.8380   82.3170   35.8630 C   0  0  0  0  0  0  0  0  0  0  0  0
   71.5910   83.1380   34.7250 C   0  0  0  0  0  0  0  0  0  0  0  0
   70.5380   84.0400   34.7420 C   0  0  0  0  0  0  0  0  0  0  0  0
   77.6930   70.8530   35.3390 C   0  0  0  0  0  0  0  0  0  0  0  0
   77.4460   71.9450   34.5040 C   0  0  0  0  0  0  0  0  0  0  0  0
   76.8110   69.8320   35.3640 N   0  0  0  0  0  0  0  0  0  0  0  0
   72.0300   78.1490   33.1970 C   0  0  0  0  0  0  0  0  0  0  0  0
   74.7670   68.6990   34.7190 C   0  0  0  0  0  0  0  0  0  0  0  0
   75.6860   69.8490   34.6250 C   0  0  0  0  0  0  0  0  0  0  0  0
   75.3870   70.9270   33.7840 C   0  0  0  0  0  0  0  0  0  0  0  0
   76.3040   71.9760   33.6950 C   0  0  0  0  0  0  0  0  0  0  0  0
   76.0020   73.1330   32.9070 N   0  0  0  0  0  0  0  0  0  0  0  0
   76.9470   73.9640   32.1960 C   0  0  0  0  0  0  0  0  0  0  0  0
   78.1500   73.7210   32.1900 O   0  0  0  0  0  0  0  0  0  0  0  0
   76.4450   75.1740   31.4910 C   0  0  0  0  0  0  0  0  0  0  0  0
   77.0000   75.6410   30.2940 C   0  0  0  0  0  0  0  0  0  0  0  0
   73.9080   77.7100   32.1380 N   0  0  0  0  0  0  0  0  0  0  0  0
   72.2560   80.5760   33.3450 N   0  0  0  0  0  0  0  0  0  0  0  0
   73.6470   81.8590   32.0980 O   0  0  0  0  0  0  0  0  0  0  0  0
   72.4650   83.0480   33.5950 N   0  0  0  0  0  0  0  0  0  0  0  0
   69.7510   84.1440   35.9110 C   0  0  0  0  0  0  0  0  0  0  0  0
   70.2380   85.1100   33.3930 Cl  0  0  0  0  0  0  0  0  0  0  0  0
   72.8140   77.1530   32.7330 N   0  0  0  0  0  0  0  0  0  0  0  0
   76.9371   77.1873   28.8011 H   0  0  0  0  0  0  0  0  0  0  0  0
   75.0419   78.3886   29.8409 H   0  0  0  0  0  0  0  0  0  0  0  0
   74.9766   75.5133   33.0236 H   0  0  0  0  0  0  0  0  0  0  0  0
   74.6009   79.7664   31.9663 H   0  0  0  0  0  0  0  0  0  0  0  0
   71.2094   81.7573   37.8541 H   0  0  0  0  0  0  0  0  0  0  0  0
   69.2977   83.3653   37.8733 H   0  0  0  0  0  0  0  0  0  0  0  0
   72.6700   81.6222   35.8502 H   0  0  0  0  0  0  0  0  0  0  0  0
   78.5818   70.8260   35.9590 H   0  0  0  0  0  0  0  0  0  0  0  0
   78.1436   72.7744   34.4822 H   0  0  0  0  0  0  0  0  0  0  0  0
   71.0862   78.0257   33.7261 H   0  0  0  0  0  0  0  0  0  0  0  0
   73.9027   68.8655   34.0593 H   0  0  0  0  0  0  0  0  0  0  0  0
   74.4202   68.5906   35.7573 H   0  0  0  0  0  0  0  0  0  0  0  0
   75.2927   67.7833   34.4105 H   0  0  0  0  0  0  0  0  0  0  0  0
   74.4647   70.9470   33.2148 H   0  0  0  0  0  0  0  0  0  0  0  0
   75.0385   73.3926   32.8420 H   0  0  0  0  0  0  0  0  0  0  0  0
   77.8098   75.0998   29.8182 H   0  0  0  0  0  0  0  0  0  0  0  0
   71.4959   80.5994   33.9944 H   0  0  0  0  0  0  0  0  0  0  0  0
   72.8309   83.8957   33.2110 H   0  0  0  0  0  0  0  0  0  0  0  0
   68.9673   84.8917   35.9544 H   0  0  0  0  0  0  0  0  0  0  0  0
  1 25  1  0  0  0  0
  1 33  1  0  0  0  0
  2 28  2  0  0  0  0
  2 29  1  0  0  0  0
  3  1  2  0  0  0  0
  3 34  1  0  0  0  0
  4  3  1  0  0  0  0
  4 26  1  0  0  0  0
  5  4  2  0  0  0  0
  5 35  1  0  0  0  0
  6 16  1  0  0  0  0
  6 27  1  0  0  0  0
  7  6  2  0  0  0  0
  7 36  1  0  0  0  0
  8  9  2  0  0  0  0
  8 37  1  0  0  0  0
  9 38  1  0  0  0  0
 10  8  1  0  0  0  0
 10 39  1  0  0  0  0
 11 10  2  0  0  0  0
 11 12  1  0  0  0  0
 12 30  2  0  0  0  0
 12 31  1  0  0  0  0
 13 15  1  0  0  0  0
 13 40  1  0  0  0  0
 14 13  2  0  0  0  0
 14 41  1  0  0  0  0
 16 32  2  0  0  0  0
 16 42  1  0  0  0  0
 17 43  1  0  0  0  0
 17 44  1  0  0  0  0
 17 45  1  0  0  0  0
 18 15  2  0  0  0  0
 18 17  1  0  0  0  0
 19 18  1  0  0  0  0
 19 46  1  0  0  0  0
 20 14  1  0  0  0  0
 20 19  2  0  0  0  0
 21 20  1  0  0  0  0
 21 47  1  0  0  0  0
 22 21  1  0  0  0  0
 22 23  2  0  0  0  0
 22 24  1  0  0  0  0
 24  5  1  0  0  0  0
 24 25  2  0  0  0  0
 25 48  1  0  0  0  0
 26  7  1  0  0  0  0
 26 32  1  0  0  0  0
 27  2  1  0  0  0  0
 27 49  1  0  0  0  0
 29 11  1  0  0  0  0
 29 50  1  0  0  0  0
 30  9  1  0  0  0  0
 30 51  1  0  0  0  0
M  END
