4w50_ligand
 OpenBabel08222323353D

182187  0  0  1  0  0  0  0  0999 V2000
   -7.9050  -34.5300  -18.9530 N   0  3  0  0  0  0  0  0  0  0  0  0
   -7.5440  -33.3230  -19.7480 C   0  0  2  0  0  0  0  0  0  0  0  0
   -8.4730  -32.1740  -19.3850 C   0  0  0  0  0  0  0  0  0  0  0  0
   -9.6760  -32.3840  -19.1610 O   0  0  0  0  0  0  0  0  0  0  0  0
   -7.6130  -33.6170  -21.2420 C   0  0  0  0  0  0  0  0  0  0  0  0
   -7.9210  -30.9580  -19.2760 N   0  0  0  0  0  0  0  0  0  0  0  0
   -8.8500  -29.8560  -19.1830 C   0  0  2  0  0  0  0  0  0  0  0  0
   -9.5540  -29.6680  -20.5320 C   0  0  0  0  0  0  0  0  0  0  0  0
   -8.9070  -29.7880  -21.5860 O   0  0  0  0  0  0  0  0  0  0  0  0
   -7.9490  -28.6470  -18.8570 C   0  0  0  0  0  0  0  0  0  0  0  0
   -6.5770  -29.0360  -19.2700 C   0  0  0  0  0  0  0  0  0  0  0  0
   -6.5140  -30.5360  -19.1500 C   0  0  0  0  0  0  0  0  0  0  0  0
  -10.8510  -29.3700  -20.4960 N   0  0  0  0  0  0  0  0  0  0  0  0
  -11.5890  -29.0140  -21.7140 C   0  0  2  0  0  0  0  0  0  0  0  0
  -10.8910  -27.8110  -22.4090 C   0  0  0  0  0  0  0  0  0  0  0  0
  -10.5250  -27.9130  -23.5720 O   0  0  0  0  0  0  0  0  0  0  0  0
  -13.0740  -28.7540  -21.3650 C   0  0  0  0  0  0  0  0  0  0  0  0
  -14.0610  -28.5670  -22.5130 C   0  0  0  0  0  0  0  0  0  0  0  0
  -13.8290  -27.6510  -23.5300 C   0  0  0  0  0  0  0  0  0  0  0  0
  -15.2590  -29.2660  -22.5360 C   0  0  0  0  0  0  0  0  0  0  0  0
  -14.7310  -27.4680  -24.5550 C   0  0  0  0  0  0  0  0  0  0  0  0
  -16.1710  -29.0950  -23.5560 C   0  0  0  0  0  0  0  0  0  0  0  0
  -15.9040  -28.1870  -24.5650 C   0  0  0  0  0  0  0  0  0  0  0  0
  -16.7990  -27.9970  -25.5890 O   0  0  0  0  0  0  0  0  0  0  0  0
  -10.6750  -26.7050  -21.7020 N   0  0  0  0  0  0  0  0  0  0  0  0
   -9.8940  -25.5690  -22.2600 C   0  0  2  0  0  0  0  0  0  0  0  0
   -8.6650  -25.2380  -21.4600 C   0  0  0  0  0  0  0  0  0  0  0  0
   -8.6170  -25.5270  -20.2840 O   0  0  0  0  0  0  0  0  0  0  0  0
  -10.7260  -24.2910  -22.2660 C   0  0  0  0  0  0  0  0  0  0  0  0
  -12.3920  -24.4790  -22.8910 S   0  0  0  0  0  0  0  0  0  0  0  0
   -7.7110  -24.5630  -22.0810 N   0  0  0  0  0  0  0  0  0  0  0  0
   -6.5570  -23.9980  -21.3760 C   0  0  2  0  0  0  0  0  0  0  0  0
   -6.2680  -22.5130  -21.7260 C   0  0  0  0  0  0  0  0  0  0  0  0
   -6.0340  -22.1600  -22.8760 O   0  0  0  0  0  0  0  0  0  0  0  0
   -5.3220  -24.8560  -21.6630 C   0  0  0  0  0  0  0  0  0  0  0  0
   -4.1130  -24.3760  -20.8700 C   0  0  0  0  0  0  0  0  0  0  0  0
   -5.6360  -26.3060  -21.3270 C   0  0  0  0  0  0  0  0  0  0  0  0
   -6.2710  -21.6440  -20.7180 N   0  0  0  0  0  0  0  0  0  0  0  0
   -5.9740  -20.2160  -20.9090 C   0  0  2  0  0  0  0  0  0  0  0  0
   -4.4790  -19.9580  -21.0160 C   0  0  0  0  0  0  0  0  0  0  0  0
   -3.7510  -20.1060  -20.0450 O   0  0  0  0  0  0  0  0  0  0  0  0
   -6.5550  -19.4130  -19.7590 C   0  0  0  0  0  0  0  0  0  0  0  0
   -6.5830  -17.9060  -19.9820 C   0  0  0  0  0  0  0  0  0  0  0  0
   -7.4610  -17.3300  -20.8910 C   0  0  0  0  0  0  0  0  0  0  0  0
   -5.7290  -17.0620  -19.2600 C   0  0  0  0  0  0  0  0  0  0  0  0
   -7.4900  -15.9630  -21.0950 C   0  0  0  0  0  0  0  0  0  0  0  0
   -5.7440  -15.6980  -19.4630 C   0  0  0  0  0  0  0  0  0  0  0  0
   -6.6340  -15.1460  -20.3650 C   0  0  0  0  0  0  0  0  0  0  0  0
   -6.6210  -13.7960  -20.5570 O   0  0  0  0  0  0  0  0  0  0  0  0
   -4.0090  -19.5610  -22.2040 N   0  0  0  0  0  0  0  0  0  0  0  0
   -2.6050  -19.1670  -22.3580 C   0  0  2  0  0  0  0  0  0  0  0  0
   -2.4450  -17.7070  -22.7340 C   0  0  0  0  0  0  0  0  0  0  0  0
   -1.5040  -17.3540  -23.4330 O   0  0  0  0  0  0  0  0  0  0  0  0
   -1.8920  -20.0780  -23.3630 C   0  0  0  0  0  0  0  0  0  0  0  0
   -1.5110  -21.3970  -22.7280 C   0  0  0  0  0  0  0  0  0  0  0  0
   -1.0850  -22.4330  -23.7480 C   0  0  0  0  0  0  0  0  0  0  0  0
   -1.2640  -23.7880  -23.2090 N   0  0  0  0  0  0  0  0  0  0  0  0
   -0.4690  -24.3690  -22.3100 C   0  0  0  0  0  3  0  0  0  0  0  0
    0.6000  -23.7400  -21.8110 N   0  0  0  0  0  0  0  0  0  0  0  0
   -0.7460  -25.6090  -21.9150 N   0  0  0  0  0  0  0  0  0  0  0  0
   -3.3280  -16.8590  -22.2160 N   0  0  0  0  0  0  0  0  0  0  0  0
   -3.4090  -15.4540  -22.6290 C   0  0  0  0  0  0  0  0  0  0  0  0
   -4.7520  -15.2120  -23.2850 C   0  0  0  0  0  0  0  0  0  0  0  0
   -5.2110  -14.0730  -23.4110 O   0  0  0  0  0  0  0  0  0  0  0  0
   -5.3760  -16.3260  -23.6750 N   0  0  0  0  0  0  0  0  0  0  0  0
   -6.6560  -16.3840  -24.3610 C   0  0  2  0  0  0  0  0  0  0  0  0
   -7.1160  -17.8200  -24.1840 C   0  0  0  0  0  0  0  0  0  0  0  0
   -6.2960  -18.7350  -24.0750 O   0  0  0  0  0  0  0  0  0  0  0  0
   -6.4770  -16.1090  -25.8520 C   0  0  0  0  0  0  0  0  0  0  0  0
   -5.7300  -17.1530  -26.4720 O   0  0  0  0  0  0  0  0  0  0  0  0
   -8.4160  -18.0180  -24.1390 N   0  0  0  0  0  0  0  0  0  0  0  0
   -8.9550  -19.3360  -23.9900 C   0  0  2  0  0  0  0  0  0  0  0  0
   -8.7990  -20.1190  -25.2650 C   0  0  0  0  0  0  0  0  0  0  0  0
   -8.5940  -19.5790  -26.3380 O   0  0  0  0  0  0  0  0  0  0  0  0
  -10.4060  -19.2700  -23.5770 C   0  0  0  0  0  0  0  0  0  0  0  0
  -10.5350  -19.0030  -22.1350 C   0  0  0  0  0  0  0  0  0  0  0  0
  -10.9550  -17.8510  -21.5450 C   0  0  0  0  0  0  0  0  0  0  0  0
  -10.2250  -19.9100  -21.0800 C   0  0  0  0  0  0  0  0  0  0  0  0
  -10.9430  -17.9920  -20.1800 N   0  0  0  0  0  0  0  0  0  0  0  0
  -10.5000  -19.2510  -19.8700 C   0  0  0  0  0  0  0  0  0  0  0  0
   -9.7280  -21.2080  -21.0420 C   0  0  0  0  0  0  0  0  0  0  0  0
  -10.3110  -19.8540  -18.6320 C   0  0  0  0  0  0  0  0  0  0  0  0
   -9.5470  -21.8080  -19.8080 C   0  0  0  0  0  0  0  0  0  0  0  0
   -9.8310  -21.1310  -18.6220 C   0  0  0  0  0  0  0  0  0  0  0  0
   -8.8940  -21.4160  -25.1460 N   0  0  0  0  0  0  0  0  0  0  0  0
   -8.2970  -22.2560  -26.1470 C   0  0  2  0  0  0  0  0  0  0  0  0
   -8.7580  -23.6670  -25.8830 C   0  0  0  0  0  0  0  0  0  0  0  0
   -8.1530  -24.4060  -25.1090 O   0  0  0  0  0  0  0  0  0  0  0  0
   -6.7800  -22.0960  -26.0410 C   0  0  0  0  0  0  0  0  0  0  0  0
   -6.0980  -23.2480  -26.4280 O   0  0  0  0  0  0  0  0  0  0  0  0
   -9.8830  -23.9940  -26.5090 N   0  0  0  0  0  0  0  0  0  0  0  0
  -10.6360  -25.2160  -26.2260 C   0  0  2  0  0  0  0  0  0  0  0  0
  -10.4890  -26.2020  -27.3590 C   0  0  0  0  0  0  0  0  0  0  0  0
   -9.3880  -26.3470  -27.8800 O   0  5  0  0  0  0  0  0  0  0  0  0
  -12.1100  -24.8800  -25.9740 C   0  0  0  0  0  0  0  0  0  0  0  0
  -12.2860  -23.5600  -24.7410 S   0  0  0  0  0  0  0  0  0  0  0  0
  -11.4420  -26.8700  -27.7500 O   0  0  0  0  0  0  0  0  0  0  0  0
   -7.2879  -35.2891  -19.1958 H   0  0  0  0  0  0  0  0  0  0  0  0
   -8.8569  -34.7931  -19.1550 H   0  0  0  0  0  0  0  0  0  0  0  0
   -7.8145  -34.3246  -17.9703 H   0  0  0  0  0  0  0  0  0  0  0  0
   -6.5126  -33.0338  -19.4981 H   0  0  0  0  0  0  0  0  0  0  0  0
   -7.3428  -32.7124  -21.8065 H   0  0  0  0  0  0  0  0  0  0  0  0
   -8.6351  -33.9238  -21.5085 H   0  0  0  0  0  0  0  0  0  0  0  0
   -6.9108  -34.4268  -21.4892 H   0  0  0  0  0  0  0  0  0  0  0  0
   -9.5939  -30.0220  -18.3899 H   0  0  0  0  0  0  0  0  0  0  0  0
   -7.9764  -28.4295  -17.7791 H   0  0  0  0  0  0  0  0  0  0  0  0
   -8.2803  -27.7610  -19.4184 H   0  0  0  0  0  0  0  0  0  0  0  0
   -5.8324  -28.5686  -18.6089 H   0  0  0  0  0  0  0  0  0  0  0  0
   -6.3894  -28.7280  -20.3092 H   0  0  0  0  0  0  0  0  0  0  0  0
   -5.9016  -30.9682  -19.9551 H   0  0  0  0  0  0  0  0  0  0  0  0
   -6.1012  -30.8341  -18.1750 H   0  0  0  0  0  0  0  0  0  0  0  0
  -11.3331  -29.3891  -19.6201 H   0  0  0  0  0  0  0  0  0  0  0  0
  -11.5531  -29.8678  -22.4067 H   0  0  0  0  0  0  0  0  0  0  0  0
  -13.1102  -27.8416  -20.7516 H   0  0  0  0  0  0  0  0  0  0  0  0
  -13.4242  -29.6102  -20.7698 H   0  0  0  0  0  0  0  0  0  0  0  0
  -12.9165  -27.0659  -23.5173 H   0  0  0  0  0  0  0  0  0  0  0  0
  -15.4829  -29.9614  -21.7352 H   0  0  0  0  0  0  0  0  0  0  0  0
  -14.5178  -26.7616  -25.3491 H   0  0  0  0  0  0  0  0  0  0  0  0
  -17.0910  -29.6682  -23.5672 H   0  0  0  0  0  0  0  0  0  0  0  0
  -17.6280  -27.7000  -25.2325 H   0  0  0  0  0  0  0  0  0  0  0  0
  -11.0456  -26.6360  -20.7758 H   0  0  0  0  0  0  0  0  0  0  0  0
   -9.5994  -25.8268  -23.2880 H   0  0  0  0  0  0  0  0  0  0  0  0
  -10.2082  -23.5491  -22.8917 H   0  0  0  0  0  0  0  0  0  0  0  0
  -10.7888  -23.9194  -21.2326 H   0  0  0  0  0  0  0  0  0  0  0  0
   -7.7802  -24.4334  -23.0701 H   0  0  0  0  0  0  0  0  0  0  0  0
   -6.7698  -24.0466  -20.2979 H   0  0  0  0  0  0  0  0  0  0  0  0
   -5.0847  -24.7831  -22.7346 H   0  0  0  0  0  0  0  0  0  0  0  0
   -3.2467  -25.0136  -21.1004 H   0  0  0  0  0  0  0  0  0  0  0  0
   -4.3342  -24.4328  -19.7940 H   0  0  0  0  0  0  0  0  0  0  0  0
   -3.8851  -23.3351  -21.1431 H   0  0  0  0  0  0  0  0  0  0  0  0
   -6.5102  -26.6358  -21.9075 H   0  0  0  0  0  0  0  0  0  0  0  0
   -5.8547  -26.3944  -20.2526 H   0  0  0  0  0  0  0  0  0  0  0  0
   -4.7702  -26.9364  -21.5780 H   0  0  0  0  0  0  0  0  0  0  0  0
   -6.4827  -21.9736  -19.7979 H   0  0  0  0  0  0  0  0  0  0  0  0
   -6.4490  -19.8864  -21.8448 H   0  0  0  0  0  0  0  0  0  0  0  0
   -5.9519  -19.6149  -18.8615 H   0  0  0  0  0  0  0  0  0  0  0  0
   -7.5875  -19.7533  -19.5912 H   0  0  0  0  0  0  0  0  0  0  0  0
   -8.1372  -17.9651  -21.4518 H   0  0  0  0  0  0  0  0  0  0  0  0
   -5.0473  -17.4868  -18.5321 H   0  0  0  0  0  0  0  0  0  0  0  0
   -8.1738  -15.5321  -21.8174 H   0  0  0  0  0  0  0  0  0  0  0  0
   -5.0591  -15.0600  -18.9162 H   0  0  0  0  0  0  0  0  0  0  0  0
   -7.2809  -13.5622  -21.1992 H   0  0  0  0  0  0  0  0  0  0  0  0
   -4.6209  -19.5327  -22.9944 H   0  0  0  0  0  0  0  0  0  0  0  0
   -2.1184  -19.3059  -21.3813 H   0  0  0  0  0  0  0  0  0  0  0  0
   -0.9813  -19.5752  -23.7204 H   0  0  0  0  0  0  0  0  0  0  0  0
   -2.5630  -20.2693  -24.2133 H   0  0  0  0  0  0  0  0  0  0  0  0
   -2.3783  -21.7846  -22.1733 H   0  0  0  0  0  0  0  0  0  0  0  0
   -0.6773  -21.2249  -22.0314 H   0  0  0  0  0  0  0  0  0  0  0  0
   -0.0249  -22.2800  -23.9986 H   0  0  0  0  0  0  0  0  0  0  0  0
   -1.6963  -22.3206  -24.6555 H   0  0  0  0  0  0  0  0  0  0  0  0
   -2.0677  -24.3325  -23.5531 H   0  0  0  0  0  0  0  0  0  0  0  0
    1.1979  -24.2117  -21.1175 H   0  0  0  0  0  0  0  0  0  0  0  0
    0.8257  -22.7838  -22.1201 H   0  0  0  0  0  0  0  0  0  0  0  0
   -1.5681  -26.0992  -22.2956 H   0  0  0  0  0  0  0  0  0  0  0  0
   -0.1384  -26.0787  -21.2287 H   0  0  0  0  0  0  0  0  0  0  0  0
   -3.9616  -17.1919  -21.5176 H   0  0  0  0  0  0  0  0  0  0  0  0
   -2.6034  -15.2324  -23.3445 H   0  0  0  0  0  0  0  0  0  0  0  0
   -3.3060  -14.8036  -21.7479 H   0  0  0  0  0  0  0  0  0  0  0  0
   -4.9235  -17.1958  -23.4781 H   0  0  0  0  0  0  0  0  0  0  0  0
   -7.3731  -15.6732  -23.9246 H   0  0  0  0  0  0  0  0  0  0  0  0
   -5.9421  -15.1566  -25.9816 H   0  0  0  0  0  0  0  0  0  0  0  0
   -7.4664  -16.0416  -26.3279 H   0  0  0  0  0  0  0  0  0  0  0  0
   -6.1904  -17.9771  -26.3647 H   0  0  0  0  0  0  0  0  0  0  0  0
   -9.0363  -17.2369  -24.2099 H   0  0  0  0  0  0  0  0  0  0  0  0
   -8.3934  -19.8519  -23.1973 H   0  0  0  0  0  0  0  0  0  0  0  0
  -10.8897  -20.2303  -23.8092 H   0  0  0  0  0  0  0  0  0  0  0  0
  -10.9027  -18.4643  -24.1373 H   0  0  0  0  0  0  0  0  0  0  0  0
  -11.2562  -16.9501  -22.0775 H   0  0  0  0  0  0  0  0  0  0  0  0
  -11.2213  -17.2700  -19.5002 H   0  0  0  0  0  0  0  0  0  0  0  0
   -9.4880  -21.7374  -21.9570 H   0  0  0  0  0  0  0  0  0  0  0  0
  -10.5363  -19.3299  -17.7102 H   0  0  0  0  0  0  0  0  0  0  0  0
   -9.1766  -22.8257  -19.7622 H   0  0  0  0  0  0  0  0  0  0  0  0
   -9.6671  -21.6295  -17.6735 H   0  0  0  0  0  0  0  0  0  0  0  0
   -9.3761  -21.8193  -24.3682 H   0  0  0  0  0  0  0  0  0  0  0  0
   -8.6249  -21.9480  -27.1508 H   0  0  0  0  0  0  0  0  0  0  0  0
   -6.5207  -21.8654  -24.9972 H   0  0  0  0  0  0  0  0  0  0  0  0
   -6.4659  -21.2646  -26.6891 H   0  0  0  0  0  0  0  0  0  0  0  0
   -6.3578  -23.9712  -25.8693 H   0  0  0  0  0  0  0  0  0  0  0  0
  -10.2334  -23.3728  -27.2100 H   0  0  0  0  0  0  0  0  0  0  0  0
  -10.2252  -25.6749  -25.3146 H   0  0  0  0  0  0  0  0  0  0  0  0
  -12.6254  -25.7810  -25.6099 H   0  0  0  0  0  0  0  0  0  0  0  0
  -12.5688  -24.5514  -26.9182 H   0  0  0  0  0  0  0  0  0  0  0  0
  1  2  1  0  0  0  0
  1 98  1  0  0  0  0
  1 99  1  0  0  0  0
  1100  1  0  0  0  0
  2  3  1  0  0  0  0
  2  5  1  0  0  0  0
  2101  1  1  0  0  0
  3  4  2  0  0  0  0
  3  6  1  0  0  0  0
  5102  1  0  0  0  0
  5103  1  0  0  0  0
  5104  1  0  0  0  0
  6  7  1  0  0  0  0
  6 12  1  0  0  0  0
  7  8  1  0  0  0  0
  7 10  1  0  0  0  0
  7105  1  1  0  0  0
  8  9  2  0  0  0  0
  8 13  1  0  0  0  0
 10 11  1  0  0  0  0
 10106  1  0  0  0  0
 10107  1  0  0  0  0
 11 12  1  0  0  0  0
 11108  1  0  0  0  0
 11109  1  0  0  0  0
 12110  1  0  0  0  0
 12111  1  0  0  0  0
 13 14  1  0  0  0  0
 13112  1  0  0  0  0
 14 15  1  0  0  0  0
 14 17  1  0  0  0  0
 14113  1  6  0  0  0
 15 16  2  0  0  0  0
 15 25  1  0  0  0  0
 17 18  1  0  0  0  0
 17114  1  0  0  0  0
 17115  1  0  0  0  0
 18 19  2  0  0  0  0
 18 20  1  0  0  0  0
 19 21  1  0  0  0  0
 19116  1  0  0  0  0
 20 22  2  0  0  0  0
 20117  1  0  0  0  0
 21 23  2  0  0  0  0
 21118  1  0  0  0  0
 22 23  1  0  0  0  0
 22119  1  0  0  0  0
 23 24  1  0  0  0  0
 24120  1  0  0  0  0
 25 26  1  0  0  0  0
 25121  1  0  0  0  0
 26 27  1  0  0  0  0
 26 29  1  0  0  0  0
 26122  1  6  0  0  0
 27 28  2  0  0  0  0
 27 31  1  0  0  0  0
 29 30  1  0  0  0  0
 29123  1  0  0  0  0
 29124  1  0  0  0  0
 30 96  1  0  0  0  0
 31 32  1  0  0  0  0
 31125  1  0  0  0  0
 32 33  1  0  0  0  0
 32 35  1  0  0  0  0
 32126  1  1  0  0  0
 33 34  2  0  0  0  0
 33 38  1  0  0  0  0
 35 36  1  0  0  0  0
 35 37  1  0  0  0  0
 35127  1  0  0  0  0
 36128  1  0  0  0  0
 36129  1  0  0  0  0
 36130  1  0  0  0  0
 37131  1  0  0  0  0
 37132  1  0  0  0  0
 37133  1  0  0  0  0
 38 39  1  0  0  0  0
 38134  1  0  0  0  0
 39 40  1  0  0  0  0
 39 42  1  0  0  0  0
 39135  1  6  0  0  0
 40 41  2  0  0  0  0
 40 50  1  0  0  0  0
 42 43  1  0  0  0  0
 42136  1  0  0  0  0
 42137  1  0  0  0  0
 43 44  2  0  0  0  0
 43 45  1  0  0  0  0
 44 46  1  0  0  0  0
 44138  1  0  0  0  0
 45 47  2  0  0  0  0
 45139  1  0  0  0  0
 46 48  2  0  0  0  0
 46140  1  0  0  0  0
 47 48  1  0  0  0  0
 47141  1  0  0  0  0
 48 49  1  0  0  0  0
 49142  1  0  0  0  0
 50 51  1  0  0  0  0
 50143  1  0  0  0  0
 51 52  1  0  0  0  0
 51 54  1  0  0  0  0
 51144  1  1  0  0  0
 52 53  2  0  0  0  0
 52 61  1  0  0  0  0
 54 55  1  0  0  0  0
 54145  1  0  0  0  0
 54146  1  0  0  0  0
 55 56  1  0  0  0  0
 55147  1  0  0  0  0
 55148  1  0  0  0  0
 56 57  1  0  0  0  0
 56149  1  0  0  0  0
 56150  1  0  0  0  0
 57 58  1  0  0  0  0
 57151  1  0  0  0  0
 58 59  1  0  0  0  0
 58 60  1  0  0  0  0
 59152  1  0  0  0  0
 59153  1  0  0  0  0
 60154  1  0  0  0  0
 60155  1  0  0  0  0
 61 62  1  0  0  0  0
 61156  1  0  0  0  0
 62 63  1  0  0  0  0
 62157  1  0  0  0  0
 62158  1  0  0  0  0
 63 64  2  0  0  0  0
 63 65  1  0  0  0  0
 65 66  1  0  0  0  0
 65159  1  0  0  0  0
 66 67  1  0  0  0  0
 66 69  1  0  0  0  0
 66160  1  1  0  0  0
 67 68  2  0  0  0  0
 67 71  1  0  0  0  0
 69 70  1  0  0  0  0
 69161  1  0  0  0  0
 69162  1  0  0  0  0
 70163  1  0  0  0  0
 71 72  1  0  0  0  0
 71164  1  0  0  0  0
 72 73  1  0  0  0  0
 72 75  1  0  0  0  0
 72165  1  1  0  0  0
 73 74  2  0  0  0  0
 73 85  1  0  0  0  0
 75 76  1  0  0  0  0
 75166  1  0  0  0  0
 75167  1  0  0  0  0
 76 77  2  0  0  0  0
 76 78  1  0  0  0  0
 77 79  1  0  0  0  0
 77168  1  0  0  0  0
 78 80  2  0  0  0  0
 78 81  1  0  0  0  0
 79 80  1  0  0  0  0
 79169  1  0  0  0  0
 80 82  1  0  0  0  0
 81 83  2  0  0  0  0
 81170  1  0  0  0  0
 82 84  2  0  0  0  0
 82171  1  0  0  0  0
 83 84  1  0  0  0  0
 83172  1  0  0  0  0
 84173  1  0  0  0  0
 85 86  1  0  0  0  0
 85174  1  0  0  0  0
 86 87  1  0  0  0  0
 86 89  1  0  0  0  0
 86175  1  6  0  0  0
 87 88  2  0  0  0  0
 87 91  1  0  0  0  0
 89 90  1  0  0  0  0
 89176  1  0  0  0  0
 89177  1  0  0  0  0
 90178  1  0  0  0  0
 91 92  1  0  0  0  0
 91179  1  0  0  0  0
 92 93  1  0  0  0  0
 92 95  1  0  0  0  0
 92180  1  1  0  0  0
 93 94  1  0  0  0  0
 93 97  2  0  0  0  0
 95 96  1  0  0  0  0
 95181  1  0  0  0  0
 95182  1  0  0  0  0
M  CHG  2   1   1  94  -1
M  END
