4w54_ligand
 OpenBabel08222323353D

 18 18  0  0  0  0  0  0  0  0999 V2000
   40.0430  -20.5930   14.1830 C   0  0  0  0  0  0  0  0  0  0  0  0
   39.4070  -19.3730   14.8600 C   0  0  0  0  0  0  0  0  0  0  0  0
   40.9300  -20.1910   12.9990 C   0  0  0  0  0  0  0  0  0  0  0  0
   40.3610  -19.8840   11.7690 C   0  0  0  0  0  0  0  0  0  0  0  0
   42.3120  -20.1340   13.1510 C   0  0  0  0  0  0  0  0  0  0  0  0
   41.1680  -19.5210   10.6940 C   0  0  0  0  0  0  0  0  0  0  0  0
   43.1190  -19.7700   12.0780 C   0  0  0  0  0  0  0  0  0  0  0  0
   42.5490  -19.4630   10.8470 C   0  0  0  0  0  0  0  0  0  0  0  0
   39.2435  -21.2554   13.8197 H   0  0  0  0  0  0  0  0  0  0  0  0
   40.6569  -21.1298   14.9212 H   0  0  0  0  0  0  0  0  0  0  0  0
   38.7810  -19.7054   15.7012 H   0  0  0  0  0  0  0  0  0  0  0  0
   38.7852  -18.8320   14.1315 H   0  0  0  0  0  0  0  0  0  0  0  0
   40.1986  -18.7065   15.2330 H   0  0  0  0  0  0  0  0  0  0  0  0
   39.2849  -19.9273   11.6460 H   0  0  0  0  0  0  0  0  0  0  0  0
   42.7609  -20.3739   14.1081 H   0  0  0  0  0  0  0  0  0  0  0  0
   40.7191  -19.2832    9.7364 H   0  0  0  0  0  0  0  0  0  0  0  0
   44.1950  -19.7255   12.2016 H   0  0  0  0  0  0  0  0  0  0  0  0
   43.1782  -19.1799   10.0109 H   0  0  0  0  0  0  0  0  0  0  0  0
  1  2  1  0  0  0  0
  1  3  1  0  0  0  0
  1  9  1  0  0  0  0
  1 10  1  0  0  0  0
  2 11  1  0  0  0  0
  2 12  1  0  0  0  0
  2 13  1  0  0  0  0
  3  4  2  0  0  0  0
  3  5  1  0  0  0  0
  4  6  1  0  0  0  0
  4 14  1  0  0  0  0
  5  7  2  0  0  0  0
  5 15  1  0  0  0  0
  6  8  2  0  0  0  0
  6 16  1  0  0  0  0
  7  8  1  0  0  0  0
  7 17  1  0  0  0  0
  8 18  1  0  0  0  0
M  END
