4w7t_ligand
 OpenBabel08222323353D

 34 36  0  0  1  0  0  0  0  0999 V2000
   -3.0030   -9.8140  -26.3390 C   0  0  0  0  0  0  0  0  0  0  0  0
   -1.7220   -9.7660  -25.8430 C   0  0  0  0  0  0  0  0  0  0  0  0
   -1.4770  -10.3460  -24.6220 C   0  0  0  0  0  0  0  0  0  0  0  0
   -0.8430   -8.7110  -27.7230 O   0  0  0  0  0  0  0  0  0  0  0  0
    4.2450  -10.9180  -23.3770 C   0  0  0  0  0  0  0  0  0  0  0  0
    4.8040   -9.6690  -23.2450 C   0  0  0  0  0  0  0  0  0  0  0  0
    4.1110   -8.5670  -23.6870 C   0  0  0  0  0  0  0  0  0  0  0  0
    2.8680   -8.7180  -24.2580 C   0  0  0  0  0  0  0  0  0  0  0  0
   -3.3730   -9.2140  -27.6520 C   0  0  0  0  0  0  0  0  0  0  0  0
   -3.9890  -10.4070  -25.6660 N   0  0  0  0  0  0  0  0  0  0  0  0
   -2.4510  -10.9370  -23.9300 N   0  0  0  0  0  0  0  0  0  0  0  0
   -4.6930  -11.5590  -23.7750 N   0  0  0  0  0  0  0  0  0  0  0  0
   -3.6670  -10.9410  -24.4850 C   0  0  0  0  0  0  0  0  0  0  0  0
   -0.6460   -9.1090  -26.5860 C   0  0  0  0  0  0  0  0  0  0  0  0
    0.6550   -8.9290  -25.8670 C   0  0  0  0  0  0  0  0  0  0  0  0
    0.9570  -10.1430  -25.0290 C   0  0  1  0  0  0  0  0  0  0  0  0
    2.3050   -9.9670  -24.3940 C   0  0  0  0  0  0  0  0  0  0  0  0
   -0.1220  -10.3420  -23.9920 C   0  0  0  0  0  0  0  0  0  0  0  0
    3.0040  -11.0640  -23.9490 C   0  0  0  0  0  0  0  0  0  0  0  0
    4.7851  -11.7909  -23.0286 H   0  0  0  0  0  0  0  0  0  0  0  0
    5.7838   -9.5539  -22.7958 H   0  0  0  0  0  0  0  0  0  0  0  0
    4.5440   -7.5784  -23.5857 H   0  0  0  0  0  0  0  0  0  0  0  0
    2.3268   -7.8449  -24.6041 H   0  0  0  0  0  0  0  0  0  0  0  0
   -4.4451   -9.3739  -27.8391 H   0  0  0  0  0  0  0  0  0  0  0  0
   -2.7864   -9.6905  -28.4512 H   0  0  0  0  0  0  0  0  0  0  0  0
   -3.1607   -8.1348  -27.6349 H   0  0  0  0  0  0  0  0  0  0  0  0
   -5.6459  -11.5855  -24.1651 H   0  0  0  0  0  0  0  0  0  0  0  0
   -4.4991  -11.9897  -22.8597 H   0  0  0  0  0  0  0  0  0  0  0  0
    0.5913   -8.0446  -25.2160 H   0  0  0  0  0  0  0  0  0  0  0  0
    1.4602   -8.7856  -26.6026 H   0  0  0  0  0  0  0  0  0  0  0  0
    0.9845  -11.0302  -25.6787 H   0  0  0  0  0  0  0  0  0  0  0  0
    0.0410  -11.3037  -23.4835 H   0  0  0  0  0  0  0  0  0  0  0  0
   -0.0695   -9.5251  -23.2572 H   0  0  0  0  0  0  0  0  0  0  0  0
    2.5723  -12.0532  -24.0502 H   0  0  0  0  0  0  0  0  0  0  0  0
  1  9  1  0  0  0  0
  1 10  1  0  0  0  0
  2  1  2  0  0  0  0
  2  3  1  0  0  0  0
  3 11  2  0  0  0  0
  3 18  1  0  0  0  0
  5 19  1  0  0  0  0
  5 20  1  0  0  0  0
  6  5  2  0  0  0  0
  6 21  1  0  0  0  0
  7  6  1  0  0  0  0
  7 22  1  0  0  0  0
  8  7  2  0  0  0  0
  8 23  1  0  0  0  0
  9 24  1  0  0  0  0
  9 25  1  0  0  0  0
  9 26  1  0  0  0  0
 10 13  2  0  0  0  0
 11 13  1  0  0  0  0
 12 27  1  0  0  0  0
 12 28  1  0  0  0  0
 13 12  1  0  0  0  0
 14  2  1  0  0  0  0
 14  4  2  0  0  0  0
 15 14  1  0  0  0  0
 15 29  1  0  0  0  0
 15 30  1  0  0  0  0
 16 15  1  0  0  0  0
 16 17  1  0  0  0  0
 16 18  1  0  0  0  0
 16 31  1  6  0  0  0
 17  8  1  0  0  0  0
 17 19  2  0  0  0  0
 18 32  1  0  0  0  0
 18 33  1  0  0  0  0
 19 34  1  0  0  0  0
M  END
