4w9e_ligand
 OpenBabel08222323353D

 55 57  0  0  1  0  0  0  0  0999 V2000
   13.1750   52.4960   95.2110 C   0  0  0  0  0  0  0  0  0  0  0  0
   12.5860   52.3230   93.8120 C   0  0  0  0  0  0  0  0  0  0  0  0
   11.2720   51.5440   93.9320 C   0  0  0  0  0  0  0  0  0  0  0  0
   13.5640   51.5290   92.9320 C   0  0  0  0  0  0  0  0  0  0  0  0
   12.3190   53.7180   93.2880 C   0  0  0  0  0  0  0  0  0  0  0  0
   11.9460   53.6710   91.7790 C   0  0  0  0  0  0  0  0  0  0  0  0
   10.7790   53.4260   91.4650 O   0  0  0  0  0  0  0  0  0  0  0  0
   12.9010   53.9790   90.8600 N   0  0  0  0  0  0  0  0  0  0  0  0
   14.3550   54.3770   91.0090 C   0  0  0  0  0  0  0  0  0  0  0  0
   14.6720   55.1950   89.7790 C   0  0  2  0  0  0  0  0  0  0  0  0
   14.2730   56.5650   89.9670 O   0  0  0  0  0  0  0  0  0  0  0  0
   13.8230   54.5610   88.7050 C   0  0  0  0  0  0  0  0  0  0  0  0
   12.5460   54.0790   89.4010 C   0  0  1  0  0  0  0  0  0  0  0  0
   12.1230   52.8850   88.8080 C   0  0  0  0  0  0  0  0  0  0  0  0
   12.6460   51.8200   89.1280 O   0  0  0  0  0  0  0  0  0  0  0  0
   11.1610   53.0030   87.8510 N   0  0  0  0  0  0  0  0  0  0  0  0
   10.6850   51.8380   87.1110 C   0  0  0  0  0  0  0  0  0  0  0  0
   11.4910   51.6700   85.9510 C   0  0  0  0  0  0  0  0  0  0  0  0
   11.3940   50.4740   85.2370 C   0  0  0  0  0  0  0  0  0  0  0  0
   12.1790   50.2480   84.1070 C   0  0  0  0  0  0  0  0  0  0  0  0
   12.4000   52.6380   85.4910 C   0  0  0  0  0  0  0  0  0  0  0  0
   13.1810   52.4090   84.3550 C   0  0  0  0  0  0  0  0  0  0  0  0
   13.0760   51.2190   83.6470 C   0  0  0  0  0  0  0  0  0  0  0  0
   13.8200   51.0030   82.5550 C   0  0  0  0  0  0  0  0  0  0  0  0
   15.4190   51.4870   82.3140 S   0  0  0  0  0  0  0  0  0  0  0  0
   15.5370   50.8320   80.8020 C   0  0  0  0  0  0  0  0  0  0  0  0
   14.3620   50.2570   80.5100 N   0  0  0  0  0  0  0  0  0  0  0  0
   13.4100   50.3460   81.4640 C   0  0  0  0  0  0  0  0  0  0  0  0
   13.3900   51.5075   95.6431 H   0  0  0  0  0  0  0  0  0  0  0  0
   12.4533   53.0262   95.8497 H   0  0  0  0  0  0  0  0  0  0  0  0
   14.1058   53.0787   95.1475 H   0  0  0  0  0  0  0  0  0  0  0  0
   10.8328   51.4097   92.9325 H   0  0  0  0  0  0  0  0  0  0  0  0
   10.5707   52.1036   94.5684 H   0  0  0  0  0  0  0  0  0  0  0  0
   11.4691   50.5594   94.3811 H   0  0  0  0  0  0  0  0  0  0  0  0
   14.5096   52.0837   92.8422 H   0  0  0  0  0  0  0  0  0  0  0  0
   13.1260   51.3870   91.9330 H   0  0  0  0  0  0  0  0  0  0  0  0
   13.7565   50.5480   93.3908 H   0  0  0  0  0  0  0  0  0  0  0  0
   13.2218   54.3327   93.4187 H   0  0  0  0  0  0  0  0  0  0  0  0
   11.4869   54.1637   93.8528 H   0  0  0  0  0  0  0  0  0  0  0  0
   14.9962   53.4844   91.0539 H   0  0  0  0  0  0  0  0  0  0  0  0
   14.4988   54.9780   91.9190 H   0  0  0  0  0  0  0  0  0  0  0  0
   15.7421   55.1438   89.5295 H   0  0  0  0  0  0  0  0  0  0  0  0
   14.4794   57.0639   89.1853 H   0  0  0  0  0  0  0  0  0  0  0  0
   14.3539   53.7114   88.2507 H   0  0  0  0  0  0  0  0  0  0  0  0
   13.5782   55.2989   87.9268 H   0  0  0  0  0  0  0  0  0  0  0  0
   11.7454   54.8236   89.2801 H   0  0  0  0  0  0  0  0  0  0  0  0
   10.7740   53.9033   87.6518 H   0  0  0  0  0  0  0  0  0  0  0  0
    9.6372   51.9918   86.8138 H   0  0  0  0  0  0  0  0  0  0  0  0
   10.7586   50.9421   87.7450 H   0  0  0  0  0  0  0  0  0  0  0  0
   10.6985   49.7103   85.5659 H   0  0  0  0  0  0  0  0  0  0  0  0
   12.0933   49.3063   83.5769 H   0  0  0  0  0  0  0  0  0  0  0  0
   12.4968   53.5762   86.0253 H   0  0  0  0  0  0  0  0  0  0  0  0
   13.8776   53.1700   84.0223 H   0  0  0  0  0  0  0  0  0  0  0  0
   16.4139   50.8621   80.1570 H   0  0  0  0  0  0  0  0  0  0  0  0
   12.4110   49.9260   81.3562 H   0  0  0  0  0  0  0  0  0  0  0  0
  1  2  1  0  0  0  0
  1 29  1  0  0  0  0
  1 30  1  0  0  0  0
  1 31  1  0  0  0  0
  2  3  1  0  0  0  0
  2  4  1  0  0  0  0
  2  5  1  0  0  0  0
  3 32  1  0  0  0  0
  3 33  1  0  0  0  0
  3 34  1  0  0  0  0
  4 35  1  0  0  0  0
  4 36  1  0  0  0  0
  4 37  1  0  0  0  0
  5  6  1  0  0  0  0
  5 38  1  0  0  0  0
  5 39  1  0  0  0  0
  6  7  2  0  0  0  0
  6  8  1  0  0  0  0
  8  9  1  0  0  0  0
  8 13  1  0  0  0  0
  9 10  1  0  0  0  0
  9 40  1  0  0  0  0
  9 41  1  0  0  0  0
 10 11  1  0  0  0  0
 10 12  1  0  0  0  0
 10 42  1  6  0  0  0
 11 43  1  0  0  0  0
 12 13  1  0  0  0  0
 12 44  1  0  0  0  0
 12 45  1  0  0  0  0
 13 14  1  0  0  0  0
 13 46  1  6  0  0  0
 14 15  2  0  0  0  0
 14 16  1  0  0  0  0
 16 17  1  0  0  0  0
 16 47  1  0  0  0  0
 17 18  1  0  0  0  0
 17 48  1  0  0  0  0
 17 49  1  0  0  0  0
 18 19  2  0  0  0  0
 18 21  1  0  0  0  0
 19 20  1  0  0  0  0
 19 50  1  0  0  0  0
 20 23  2  0  0  0  0
 20 51  1  0  0  0  0
 21 22  2  0  0  0  0
 21 52  1  0  0  0  0
 22 23  1  0  0  0  0
 22 53  1  0  0  0  0
 23 24  1  0  0  0  0
 24 25  1  0  0  0  0
 24 28  2  0  0  0  0
 25 26  1  0  0  0  0
 26 27  2  0  0  0  0
 26 54  1  0  0  0  0
 27 28  1  0  0  0  0
 28 55  1  0  0  0  0
M  END
