4w9q_ligand
 OpenBabel08222323353D

 67 70  0  0  1  0  0  0  0  0999 V2000
   15.9990   -9.8230  -20.5860 C   0  0  0  0  0  0  0  0  0  0  0  0
   16.7890  -10.7150  -19.7870 O   0  0  0  0  0  0  0  0  0  0  0  0
   16.3760  -12.0030  -19.6820 C   0  0  0  0  0  0  0  0  0  0  0  0
   15.1460  -12.4310  -20.1650 C   0  0  0  0  0  0  0  0  0  0  0  0
   17.2320  -12.8950  -19.0570 C   0  0  0  0  0  0  0  0  0  0  0  0
   18.4230  -12.3890  -18.6070 O   0  0  0  0  0  0  0  0  0  0  0  0
   19.2740  -13.2820  -17.8800 C   0  0  0  0  0  0  0  0  0  0  0  0
   16.8340  -14.2260  -18.9390 C   0  0  0  0  0  0  0  0  0  0  0  0
   15.6000  -14.6600  -19.4190 C   0  0  0  0  0  0  0  0  0  0  0  0
   14.7490  -13.7550  -20.0510 C   0  0  0  0  0  0  0  0  0  0  0  0
   13.5160  -14.0680  -20.5650 O   0  0  0  0  0  0  0  0  0  0  0  0
   13.1540  -15.4440  -20.6740 C   0  0  0  0  0  0  0  0  0  0  0  0
   12.6440  -15.9700  -19.3410 C   0  0  0  0  0  0  0  0  0  0  0  0
   11.3480  -15.3840  -18.9630 N   0  0  0  0  0  0  0  0  0  0  0  0
   11.2850  -14.5170  -17.9440 C   0  0  0  0  0  0  0  0  0  0  0  0
   12.3420  -14.2320  -17.3940 O   0  0  0  0  0  0  0  0  0  0  0  0
   10.1600  -15.8190  -19.7320 C   0  0  0  0  0  0  0  0  0  0  0  0
    9.1040  -16.5370  -18.8880 C   0  0  2  0  0  0  0  0  0  0  0  0
    8.1080  -17.2490  -19.8110 C   0  0  0  0  0  0  0  0  0  0  0  0
    8.4740  -18.3540  -20.5660 C   0  0  0  0  0  0  0  0  0  0  0  0
    8.3130  -15.5570  -17.9940 C   0  0  1  0  0  0  0  0  0  0  0  0
    8.2860  -16.0300  -16.5280 C   0  0  0  0  0  0  0  0  0  0  0  0
    9.6050  -15.7480  -15.8360 C   0  0  0  0  0  0  0  0  0  0  0  0
    9.9220  -14.2670  -15.9170 C   0  0  0  0  0  0  0  0  0  0  0  0
   10.0590  -13.8450  -17.3800 C   0  0  2  0  0  0  0  0  0  0  0  0
    8.8510  -14.1710  -18.2100 N   0  0  0  0  0  0  0  0  0  0  0  0
    7.7440  -13.0210  -18.2020 S   0  0  0  0  0  0  0  0  0  0  0  0
    8.2890  -11.6940  -18.1560 O   0  0  0  0  0  0  0  0  0  0  0  0
    6.4210  -13.3620  -17.6970 O   0  0  0  0  0  0  0  0  0  0  0  0
    7.3290  -13.0580  -19.9110 C   0  0  0  0  0  0  0  0  0  0  0  0
    8.2540  -12.6040  -20.8430 C   0  0  0  0  0  0  0  0  0  0  0  0
    7.9530  -12.6160  -22.1970 C   0  0  0  0  0  0  0  0  0  0  0  0
    9.1040  -12.0430  -23.3360 Cl  0  0  0  0  0  0  0  0  0  0  0  0
    6.7250  -13.0920  -22.6350 C   0  0  0  0  0  0  0  0  0  0  0  0
    5.7920  -13.5510  -21.7120 C   0  0  0  0  0  0  0  0  0  0  0  0
    4.2730  -14.1470  -22.2820 Cl  0  0  0  0  0  0  0  0  0  0  0  0
    6.0970  -13.5240  -20.3490 C   0  0  0  0  0  0  0  0  0  0  0  0
   16.4545   -8.8218  -20.5769 H   0  0  0  0  0  0  0  0  0  0  0  0
   14.9806   -9.7663  -20.1741 H   0  0  0  0  0  0  0  0  0  0  0  0
   15.9562  -10.1969  -21.6196 H   0  0  0  0  0  0  0  0  0  0  0  0
   14.4837  -11.7165  -20.6402 H   0  0  0  0  0  0  0  0  0  0  0  0
   20.1900  -12.7522  -17.5794 H   0  0  0  0  0  0  0  0  0  0  0  0
   19.5383  -14.1379  -18.5184 H   0  0  0  0  0  0  0  0  0  0  0  0
   18.7476  -13.6418  -16.9837 H   0  0  0  0  0  0  0  0  0  0  0  0
   17.4987  -14.9383  -18.4637 H   0  0  0  0  0  0  0  0  0  0  0  0
   15.3034  -15.6960  -19.3015 H   0  0  0  0  0  0  0  0  0  0  0  0
   14.0356  -16.0268  -20.9793 H   0  0  0  0  0  0  0  0  0  0  0  0
   12.3634  -15.5511  -21.4313 H   0  0  0  0  0  0  0  0  0  0  0  0
   13.3812  -15.7287  -18.5611 H   0  0  0  0  0  0  0  0  0  0  0  0
   12.5301  -17.0617  -19.4127 H   0  0  0  0  0  0  0  0  0  0  0  0
   10.4929  -16.5036  -20.5260 H   0  0  0  0  0  0  0  0  0  0  0  0
    9.6960  -14.9304  -20.1848 H   0  0  0  0  0  0  0  0  0  0  0  0
    9.6068  -17.2780  -18.2492 H   0  0  0  0  0  0  0  0  0  0  0  0
    7.0863  -16.8776  -19.8757 H   0  0  0  0  0  0  0  0  0  0  0  0
    7.7434  -18.8380  -21.2124 H   0  0  0  0  0  0  0  0  0  0  0  0
    9.4919  -18.7373  -20.5122 H   0  0  0  0  0  0  0  0  0  0  0  0
    7.2689  -15.5545  -18.3402 H   0  0  0  0  0  0  0  0  0  0  0  0
    8.0926  -17.1126  -16.5039 H   0  0  0  0  0  0  0  0  0  0  0  0
    7.4814  -15.5018  -15.9954 H   0  0  0  0  0  0  0  0  0  0  0  0
   10.4052  -16.3200  -16.3283 H   0  0  0  0  0  0  0  0  0  0  0  0
    9.5352  -16.0491  -14.7803 H   0  0  0  0  0  0  0  0  0  0  0  0
   10.8661  -14.0664  -15.3894 H   0  0  0  0  0  0  0  0  0  0  0  0
    9.1098  -13.6936  -15.4463 H   0  0  0  0  0  0  0  0  0  0  0  0
   10.2043  -12.7551  -17.4125 H   0  0  0  0  0  0  0  0  0  0  0  0
    9.2182  -12.2376  -20.5095 H   0  0  0  0  0  0  0  0  0  0  0  0
    6.4939  -13.1059  -23.6940 H   0  0  0  0  0  0  0  0  0  0  0  0
    5.3656  -13.8698  -19.6275 H   0  0  0  0  0  0  0  0  0  0  0  0
  1  2  1  0  0  0  0
  1 38  1  0  0  0  0
  1 39  1  0  0  0  0
  1 40  1  0  0  0  0
  2  3  1  0  0  0  0
  3  4  2  0  0  0  0
  3  5  1  0  0  0  0
  4 10  1  0  0  0  0
  4 41  1  0  0  0  0
  5  6  1  0  0  0  0
  5  8  2  0  0  0  0
  6  7  1  0  0  0  0
  7 42  1  0  0  0  0
  7 43  1  0  0  0  0
  7 44  1  0  0  0  0
  8  9  1  0  0  0  0
  8 45  1  0  0  0  0
  9 10  2  0  0  0  0
  9 46  1  0  0  0  0
 10 11  1  0  0  0  0
 11 12  1  0  0  0  0
 12 13  1  0  0  0  0
 12 47  1  0  0  0  0
 12 48  1  0  0  0  0
 13 14  1  0  0  0  0
 13 49  1  0  0  0  0
 13 50  1  0  0  0  0
 14 15  1  0  0  0  0
 14 17  1  0  0  0  0
 15 16  2  0  0  0  0
 15 25  1  0  0  0  0
 17 18  1  0  0  0  0
 17 51  1  0  0  0  0
 17 52  1  0  0  0  0
 18 19  1  0  0  0  0
 18 21  1  0  0  0  0
 18 53  1  1  0  0  0
 19 20  2  0  0  0  0
 19 54  1  0  0  0  0
 20 55  1  0  0  0  0
 20 56  1  0  0  0  0
 21 22  1  0  0  0  0
 21 26  1  0  0  0  0
 21 57  1  6  0  0  0
 22 23  1  0  0  0  0
 22 58  1  0  0  0  0
 22 59  1  0  0  0  0
 23 24  1  0  0  0  0
 23 60  1  0  0  0  0
 23 61  1  0  0  0  0
 24 25  1  0  0  0  0
 24 62  1  0  0  0  0
 24 63  1  0  0  0  0
 25 26  1  0  0  0  0
 25 64  1  6  0  0  0
 26 27  1  0  0  0  0
 27 28  2  0  0  0  0
 27 29  2  0  0  0  0
 27 30  1  0  0  0  0
 30 31  2  0  0  0  0
 30 37  1  0  0  0  0
 31 32  1  0  0  0  0
 31 65  1  0  0  0  0
 32 33  1  0  0  0  0
 32 34  2  0  0  0  0
 34 35  1  0  0  0  0
 34 66  1  0  0  0  0
 35 36  1  0  0  0  0
 35 37  2  0  0  0  0
 37 67  1  0  0  0  0
M  END
