4waf_ligand
 OpenBabel08222323353D

 55 59  0  0  1  0  0  0  0  0999 V2000
   -2.6790   12.4200  -18.0750 C   0  0  2  0  0  0  0  0  0  0  0  0
   -3.3220   12.6130  -16.7070 C   0  0  0  0  0  0  0  0  0  0  0  0
   -1.8860   10.9240  -13.9840 C   0  0  0  0  0  0  0  0  0  0  0  0
    0.0820    3.5740  -14.6180 O   0  0  0  0  0  0  0  0  0  0  0  0
    2.7400    4.4840  -15.2210 C   0  0  0  0  0  0  0  0  0  0  0  0
    3.0550    4.0110  -12.8170 C   0  0  0  0  0  0  0  0  0  0  0  0
   -2.1680   10.4540  -16.1170 C   0  0  0  0  0  0  0  0  0  0  0  0
   -2.1990    9.9680  -17.5330 C   0  0  0  0  0  0  0  0  0  0  0  0
   -2.8480   10.6390  -19.8270 C   0  0  0  0  0  0  0  0  0  0  0  0
   -1.9370    9.8000  -20.4700 C   0  0  0  0  0  0  0  0  0  0  0  0
   -2.0130    9.6560  -21.8450 C   0  0  0  0  0  0  0  0  0  0  0  0
   -3.8050   11.0650  -21.9780 C   0  0  0  0  0  0  0  0  0  0  0  0
   -5.4850   12.4650  -21.5360 C   0  0  0  0  0  0  0  0  0  0  0  0
   -4.9370   12.1620  -20.3300 C   0  0  0  0  0  0  0  0  0  0  0  0
   -3.8440   11.2730  -20.5910 C   0  0  0  0  0  0  0  0  0  0  0  0
    0.5860    4.5100  -13.6520 S   0  0  0  0  0  0  0  0  0  0  0  0
    0.3520    4.2740  -12.2640 O   0  0  0  0  0  0  0  0  0  0  0  0
    2.1980    4.5850  -13.8610 N   0  0  0  0  0  0  0  0  0  0  0  0
   -0.0670    6.0890  -14.0430 C   0  0  0  0  0  0  0  0  0  0  0  0
    0.0250    6.5760  -15.3410 C   0  0  0  0  0  0  0  0  0  0  0  0
   -0.4480    7.8430  -15.6310 C   0  0  0  0  0  0  0  0  0  0  0  0
   -0.6340    6.8630  -13.0420 C   0  0  0  0  0  0  0  0  0  0  0  0
   -1.1060    8.1260  -13.3380 C   0  0  0  0  0  0  0  0  0  0  0  0
   -1.0310    8.6300  -14.6390 C   0  0  0  0  0  0  0  0  0  0  0  0
   -1.6290    9.9480  -14.9570 C   0  0  0  0  0  0  0  0  0  0  0  0
   -2.5540   11.9460  -14.4660 N   0  0  0  0  0  0  0  0  0  0  0  0
   -2.7220   11.6660  -15.8010 N   0  0  0  0  0  0  0  0  0  0  0  0
   -2.7000   10.9930  -18.4550 N   0  0  0  0  0  0  0  0  0  0  0  0
   -1.2720   13.0140  -18.1690 C   0  0  0  0  0  0  0  0  0  0  0  0
   -4.8060   11.8060  -22.5340 N   0  0  0  0  0  0  0  0  0  0  0  0
   -2.9200   10.2770  -22.6140 N   0  0  0  0  0  0  0  0  0  0  0  0
   -3.3009   12.9617  -18.8029 H   0  0  0  0  0  0  0  0  0  0  0  0
   -4.4050   12.4326  -16.7737 H   0  0  0  0  0  0  0  0  0  0  0  0
   -3.1422   13.6379  -16.3502 H   0  0  0  0  0  0  0  0  0  0  0  0
   -1.5675   10.8434  -12.9457 H   0  0  0  0  0  0  0  0  0  0  0  0
    3.8373    4.5526  -15.1844 H   0  0  0  0  0  0  0  0  0  0  0  0
    2.3417    5.3042  -15.8363 H   0  0  0  0  0  0  0  0  0  0  0  0
    2.4474    3.5195  -15.6617 H   0  0  0  0  0  0  0  0  0  0  0  0
    4.1108    4.1372  -13.0989 H   0  0  0  0  0  0  0  0  0  0  0  0
    2.8306    2.9399  -12.7062 H   0  0  0  0  0  0  0  0  0  0  0  0
    2.8661    4.5258  -11.8634 H   0  0  0  0  0  0  0  0  0  0  0  0
   -2.8545    9.0866  -17.5917 H   0  0  0  0  0  0  0  0  0  0  0  0
   -1.1791    9.6872  -17.8345 H   0  0  0  0  0  0  0  0  0  0  0  0
   -1.1816    9.2693  -19.9019 H   0  0  0  0  0  0  0  0  0  0  0  0
   -1.2966    9.0022  -22.3292 H   0  0  0  0  0  0  0  0  0  0  0  0
   -6.3340   13.1296  -21.6892 H   0  0  0  0  0  0  0  0  0  0  0  0
   -5.2643   12.5238  -19.3564 H   0  0  0  0  0  0  0  0  0  0  0  0
    0.4650    5.9664  -16.1220 H   0  0  0  0  0  0  0  0  0  0  0  0
   -0.3644    8.2282  -16.6408 H   0  0  0  0  0  0  0  0  0  0  0  0
   -0.7063    6.4779  -12.0313 H   0  0  0  0  0  0  0  0  0  0  0  0
   -1.5398    8.7337  -12.5521 H   0  0  0  0  0  0  0  0  0  0  0  0
   -0.8675   12.8408  -19.1772 H   0  0  0  0  0  0  0  0  0  0  0  0
   -0.6203   12.5328  -17.4249 H   0  0  0  0  0  0  0  0  0  0  0  0
   -1.3166   14.0954  -17.9726 H   0  0  0  0  0  0  0  0  0  0  0  0
   -5.0192   11.8629  -23.5401 H   0  0  0  0  0  0  0  0  0  0  0  0
  1 29  1  0  0  0  0
  1 32  1  6  0  0  0
  2  1  1  0  0  0  0
  2 33  1  0  0  0  0
  2 34  1  0  0  0  0
  3 26  2  0  0  0  0
  3 35  1  0  0  0  0
  5 36  1  0  0  0  0
  5 37  1  0  0  0  0
  5 38  1  0  0  0  0
  6 39  1  0  0  0  0
  6 40  1  0  0  0  0
  6 41  1  0  0  0  0
  7  8  1  0  0  0  0
  7 27  1  0  0  0  0
  8 28  1  0  0  0  0
  8 42  1  0  0  0  0
  8 43  1  0  0  0  0
  9 10  2  0  0  0  0
  9 15  1  0  0  0  0
 10 11  1  0  0  0  0
 10 44  1  0  0  0  0
 11 31  2  0  0  0  0
 11 45  1  0  0  0  0
 12 30  1  0  0  0  0
 12 31  1  0  0  0  0
 13 30  1  0  0  0  0
 13 46  1  0  0  0  0
 14 13  2  0  0  0  0
 14 47  1  0  0  0  0
 15 12  2  0  0  0  0
 15 14  1  0  0  0  0
 16  4  2  0  0  0  0
 16 17  2  0  0  0  0
 16 18  1  0  0  0  0
 18  5  1  0  0  0  0
 18  6  1  0  0  0  0
 19 16  1  0  0  0  0
 20 19  2  0  0  0  0
 20 48  1  0  0  0  0
 21 20  1  0  0  0  0
 21 49  1  0  0  0  0
 22 19  1  0  0  0  0
 22 50  1  0  0  0  0
 23 22  2  0  0  0  0
 23 51  1  0  0  0  0
 24 21  2  0  0  0  0
 24 23  1  0  0  0  0
 24 25  1  0  0  0  0
 25  3  1  0  0  0  0
 25  7  2  0  0  0  0
 26 27  1  0  0  0  0
 27  2  1  0  0  0  0
 28  1  1  0  0  0  0
 28  9  1  0  0  0  0
 29 52  1  0  0  0  0
 29 53  1  0  0  0  0
 29 54  1  0  0  0  0
 30 55  1  0  0  0  0
M  END
