4wet_ligand
 OpenBabel08222323353D

 47 49  0  0  1  0  0  0  0  0999 V2000
    8.8060   27.6240   -6.8870 O   0  0  0  0  0  0  0  0  0  0  0  0
    7.7440   27.5860   -7.4820 C   0  0  0  0  0  0  0  0  0  0  0  0
    6.5540   27.0970   -6.9450 N   0  0  0  0  0  0  0  0  0  0  0  0
    6.3100   26.5670   -5.5950 C   0  0  1  0  0  0  0  0  0  0  0  0
    5.0900   27.2710   -4.8890 C   0  0  0  0  0  0  0  0  0  0  0  0
    5.0750   28.7980   -4.9360 C   0  0  0  0  0  0  0  0  0  0  0  0
    5.6290   29.6630   -3.9750 C   0  0  0  0  0  0  0  0  0  0  0  0
    5.5730   31.0590   -4.1160 C   0  0  0  0  0  0  0  0  0  0  0  0
    4.9590   31.6080   -5.2390 C   0  0  0  0  0  0  0  0  0  0  0  0
    4.9040   32.9790   -5.3790 O   0  0  0  0  0  0  0  0  0  0  0  0
    4.4020   30.7700   -6.2150 C   0  0  0  0  0  0  0  0  0  0  0  0
    4.4680   29.3890   -6.0550 C   0  0  0  0  0  0  0  0  0  0  0  0
    6.0650   25.0160   -5.6030 C   0  0  0  0  0  0  0  0  0  0  0  0
    5.9980   24.5020   -6.7470 O   0  5  0  0  0  0  0  0  0  0  0  0
    5.9720   24.4780   -4.4990 O   0  0  0  0  0  0  0  0  0  0  0  0
    7.7760   28.0930   -8.8860 C   0  0  0  0  0  0  0  0  0  0  0  0
    8.7470   28.1270   -9.8590 C   0  0  0  0  0  0  0  0  0  0  0  0
   10.1710   27.6450   -9.7180 C   0  0  0  0  0  0  0  0  0  0  0  0
    8.3390   28.6820  -11.1150 N   0  0  0  0  0  0  0  0  0  0  0  0
    7.0730   29.0870  -11.1180 C   0  0  0  0  0  0  0  0  0  0  0  0
    6.3390   29.6660  -12.2440 C   0  0  0  0  0  0  0  0  0  0  0  0
    4.9250   29.7030  -12.3360 C   0  0  0  0  0  0  0  0  0  0  0  0
    4.2400   30.2320  -13.4420 C   0  0  0  0  0  0  0  0  0  0  0  0
    4.9570   30.7510  -14.5150 C   0  0  0  0  0  0  0  0  0  0  0  0
    4.2890   31.3340  -15.7320 C   0  0  0  0  0  0  0  0  0  0  0  0
    5.1140   31.3480  -16.8110 F   0  0  0  0  0  0  0  0  0  0  0  0
    3.8970   32.6170  -15.6410 F   0  0  0  0  0  0  0  0  0  0  0  0
    3.2040   30.6730  -16.1510 F   0  0  0  0  0  0  0  0  0  0  0  0
    6.3330   30.7040  -14.4430 C   0  0  0  0  0  0  0  0  0  0  0  0
    6.9910   30.1790  -13.3520 C   0  0  0  0  0  0  0  0  0  0  0  0
    6.3060   28.7680   -9.5610 S   0  0  0  0  0  0  0  0  0  0  0  0
    5.7635   27.1081   -7.5574 H   0  0  0  0  0  0  0  0  0  0  0  0
    7.2109   26.7664   -4.9962 H   0  0  0  0  0  0  0  0  0  0  0  0
    5.0928   26.9675   -3.8317 H   0  0  0  0  0  0  0  0  0  0  0  0
    4.1693   26.9111   -5.3714 H   0  0  0  0  0  0  0  0  0  0  0  0
    6.1124   29.2404   -3.1016 H   0  0  0  0  0  0  0  0  0  0  0  0
    6.0036   31.7032   -3.3579 H   0  0  0  0  0  0  0  0  0  0  0  0
    5.7866   33.3299   -5.3983 H   0  0  0  0  0  0  0  0  0  0  0  0
    3.9226   31.1951   -7.0894 H   0  0  0  0  0  0  0  0  0  0  0  0
    4.0375   28.7504   -6.8179 H   0  0  0  0  0  0  0  0  0  0  0  0
   10.7070   27.8030  -10.6655 H   0  0  0  0  0  0  0  0  0  0  0  0
   10.1725   26.5733   -9.4702 H   0  0  0  0  0  0  0  0  0  0  0  0
   10.6708   28.2076   -8.9158 H   0  0  0  0  0  0  0  0  0  0  0  0
    4.3441   29.3035  -11.5126 H   0  0  0  0  0  0  0  0  0  0  0  0
    3.1561   30.2358  -13.4594 H   0  0  0  0  0  0  0  0  0  0  0  0
    6.9156   31.0922  -15.2706 H   0  0  0  0  0  0  0  0  0  0  0  0
    8.0749   30.1672  -13.3620 H   0  0  0  0  0  0  0  0  0  0  0  0
  1  2  2  0  0  0  0
  2  3  1  0  0  0  0
  2 16  1  0  0  0  0
  3  4  1  0  0  0  0
  3 32  1  0  0  0  0
  4  5  1  0  0  0  0
  4 13  1  0  0  0  0
  4 33  1  1  0  0  0
  5  6  1  0  0  0  0
  5 34  1  0  0  0  0
  5 35  1  0  0  0  0
  6  7  2  0  0  0  0
  6 12  1  0  0  0  0
  7  8  1  0  0  0  0
  7 36  1  0  0  0  0
  8  9  2  0  0  0  0
  8 37  1  0  0  0  0
  9 10  1  0  0  0  0
  9 11  1  0  0  0  0
 10 38  1  0  0  0  0
 11 12  2  0  0  0  0
 11 39  1  0  0  0  0
 12 40  1  0  0  0  0
 13 14  1  0  0  0  0
 13 15  2  0  0  0  0
 16 17  2  0  0  0  0
 16 31  1  0  0  0  0
 17 18  1  0  0  0  0
 17 19  1  0  0  0  0
 18 41  1  0  0  0  0
 18 42  1  0  0  0  0
 18 43  1  0  0  0  0
 19 20  2  0  0  0  0
 20 21  1  0  0  0  0
 20 31  1  0  0  0  0
 21 22  2  0  0  0  0
 21 30  1  0  0  0  0
 22 23  1  0  0  0  0
 22 44  1  0  0  0  0
 23 24  2  0  0  0  0
 23 45  1  0  0  0  0
 24 25  1  0  0  0  0
 24 29  1  0  0  0  0
 25 26  1  0  0  0  0
 25 27  1  0  0  0  0
 25 28  1  0  0  0  0
 29 30  2  0  0  0  0
 29 46  1  0  0  0  0
 30 47  1  0  0  0  0
M  CHG  1  14  -1
M  END
