4wk7_ligand
 OpenBabel08222323353D

 35 36  0  0  1  0  0  0  0  0999 V2000
   -8.4350    5.3180   24.0190 C   0  0  0  0  0  0  0  0  0  0  0  0
  -10.1970    4.5250   25.5150 C   0  0  0  0  0  0  0  0  0  0  0  0
   -7.2140    5.7270   24.4580 N   0  0  0  0  0  0  0  0  0  0  0  0
   -8.8620    4.1820   24.8950 C   0  0  1  0  0  0  0  0  0  0  0  0
   -6.8000    5.0540   25.5620 C   0  0  0  0  0  0  0  0  0  0  0  0
   -3.4170    0.6430   21.9340 C   0  0  0  0  0  0  0  0  0  0  0  0
   -4.2130    2.1890   20.3020 C   0  0  0  0  0  0  0  0  0  0  0  0
   -2.3340    0.3590   21.1250 C   0  0  0  0  0  0  0  0  0  0  0  0
   -3.1310    1.9050   19.4980 C   0  0  0  0  0  0  0  0  0  0  0  0
   -5.5900    1.2230   23.4880 C   0  0  0  0  0  0  0  0  0  0  0  0
   -8.9320    2.9250   24.0490 C   0  0  0  0  0  0  0  0  0  0  0  0
   -4.3600    1.5630   21.5200 C   0  0  0  0  0  0  0  0  0  0  0  0
   -2.1870    0.9880   19.9070 C   0  0  0  0  0  0  0  0  0  0  0  0
   -6.8590    1.6520   24.1860 C   0  0  0  0  0  0  0  0  0  0  0  0
   -7.7970    4.1680   25.8690 N   0  0  0  0  0  0  0  0  0  0  0  0
   -7.6420    2.5610   23.5130 N   0  0  0  0  0  0  0  0  0  0  0  0
   -9.0740    5.7700   23.0820 O   0  0  0  0  0  0  0  0  0  0  0  0
   -5.7340    5.2270   26.1350 O   0  0  0  0  0  0  0  0  0  0  0  0
   -7.1580    1.2110   25.2850 O   0  0  0  0  0  0  0  0  0  0  0  0
   -5.4880    1.9250   22.2530 O   0  0  0  0  0  0  0  0  0  0  0  0
   -0.8330    0.6350   18.8830 Cl  0  0  0  0  0  0  0  0  0  0  0  0
  -10.5239    3.6980   26.1624 H   0  0  0  0  0  0  0  0  0  0  0  0
  -10.9404    4.6842   24.7201 H   0  0  0  0  0  0  0  0  0  0  0  0
  -10.0983    5.4424   26.1138 H   0  0  0  0  0  0  0  0  0  0  0  0
   -6.6788    6.4463   24.0150 H   0  0  0  0  0  0  0  0  0  0  0  0
   -3.5263    0.1453   22.8908 H   0  0  0  0  0  0  0  0  0  0  0  0
   -4.9533    2.9097   19.9740 H   0  0  0  0  0  0  0  0  0  0  0  0
   -1.5943   -0.3637   21.4501 H   0  0  0  0  0  0  0  0  0  0  0  0
   -3.0219    2.4038   18.5418 H   0  0  0  0  0  0  0  0  0  0  0  0
   -5.6207    0.1402   23.2967 H   0  0  0  0  0  0  0  0  0  0  0  0
   -4.7217    1.4591   24.1206 H   0  0  0  0  0  0  0  0  0  0  0  0
   -9.6276    3.0970   23.2144 H   0  0  0  0  0  0  0  0  0  0  0  0
   -9.3039    2.0981   24.6718 H   0  0  0  0  0  0  0  0  0  0  0  0
   -7.7885    3.5780   26.6764 H   0  0  0  0  0  0  0  0  0  0  0  0
   -7.3196    2.9671   22.6579 H   0  0  0  0  0  0  0  0  0  0  0  0
  1  3  1  0  0  0  0
  1 17  2  0  0  0  0
  2 22  1  0  0  0  0
  2 23  1  0  0  0  0
  2 24  1  0  0  0  0
  3 25  1  0  0  0  0
  4  1  1  0  0  0  0
  4  2  1  1  0  0  0
  4 15  1  0  0  0  0
  5  3  1  0  0  0  0
  5 18  2  0  0  0  0
  6  8  2  0  0  0  0
  6 26  1  0  0  0  0
  7  9  1  0  0  0  0
  7 27  1  0  0  0  0
  8 13  1  0  0  0  0
  8 28  1  0  0  0  0
  9 13  2  0  0  0  0
  9 29  1  0  0  0  0
 10 20  1  0  0  0  0
 10 30  1  0  0  0  0
 10 31  1  0  0  0  0
 11  4  1  0  0  0  0
 11 32  1  0  0  0  0
 11 33  1  0  0  0  0
 12  6  1  0  0  0  0
 12  7  2  0  0  0  0
 13 21  1  0  0  0  0
 14 10  1  0  0  0  0
 14 16  1  0  0  0  0
 14 19  2  0  0  0  0
 15  5  1  0  0  0  0
 15 34  1  0  0  0  0
 16 11  1  0  0  0  0
 16 35  1  0  0  0  0
 20 12  1  0  0  0  0
M  END
