4wkc_ligand
 OpenBabel08222323353D

 49 51  0  0  1  0  0  0  0  0999 V2000
  -24.8840    2.6730  -21.8620 C   0  0  0  0  0  0  0  0  0  0  0  0
  -22.3190    2.7200  -22.8710 C   0  0  0  0  0  0  0  0  0  0  0  0
  -23.0080    1.4960  -22.5170 C   0  0  0  0  0  0  0  0  0  0  0  0
  -20.9670    1.0310  -23.3400 C   0  0  0  0  0  0  0  0  0  0  0  0
  -25.0960   -3.6270  -24.6570 O   0  0  0  0  0  0  0  0  0  0  0  0
  -25.1540   -2.1810  -24.6120 C   0  0  2  0  0  0  0  0  0  0  0  0
  -24.2660   -1.5530  -25.6690 C   0  0  1  0  0  0  0  0  0  0  0  0
  -24.6300   -0.1050  -26.0100 C   0  0  0  0  0  0  0  0  0  0  0  0
  -26.1760    0.0960  -26.8720 S   0  0  0  0  0  0  0  0  0  0  0  0
  -25.6440    0.5420  -28.4870 C   0  0  0  0  0  0  0  0  0  0  0  0
  -25.0320   -0.6310  -29.2010 C   0  0  0  0  0  0  0  0  0  0  0  0
  -24.8630   -0.2900  -30.6750 C   0  0  0  0  0  0  0  0  0  0  0  0
  -26.1850   -0.2900  -31.4080 C   0  0  0  0  0  0  0  0  0  0  0  0
  -22.8730   -1.5950  -25.0160 C   0  0  0  0  0  0  0  0  0  0  0  0
  -23.1240   -1.8440  -23.5660 N   0  3  2  0  0  0  0  0  0  0  0  0
  -24.5720   -1.6650  -23.3170 C   0  0  0  0  0  0  0  0  0  0  0  0
  -22.2740   -1.0640  -22.6400 C   0  0  0  0  0  0  0  0  0  0  0  0
  -21.0980    2.3910  -23.3430 N   0  0  0  0  0  0  0  0  0  0  0  0
  -23.0620    3.9470  -22.6620 C   0  0  0  0  0  0  0  0  0  0  0  0
  -22.5020    5.1340  -22.9530 N   0  0  0  0  0  0  0  0  0  0  0  0
  -24.2810    1.4760  -22.0190 N   0  0  0  0  0  0  0  0  0  0  0  0
  -22.0990    0.4090  -22.8440 C   0  0  0  0  0  0  0  0  0  0  0  0
  -24.3290    3.8640  -22.1730 N   0  0  0  0  0  0  0  0  0  0  0  0
  -25.8890    2.6788  -21.4559 H   0  0  0  0  0  0  0  0  0  0  0  0
  -20.0804    0.5015  -23.6856 H   0  0  0  0  0  0  0  0  0  0  0  0
  -25.6619   -3.9866  -23.9840 H   0  0  0  0  0  0  0  0  0  0  0  0
  -26.1972   -1.8538  -24.7335 H   0  0  0  0  0  0  0  0  0  0  0  0
  -24.2901   -2.1530  -26.5906 H   0  0  0  0  0  0  0  0  0  0  0  0
  -23.8302    0.3088  -26.6417 H   0  0  0  0  0  0  0  0  0  0  0  0
  -24.6863    0.4637  -25.0701 H   0  0  0  0  0  0  0  0  0  0  0  0
  -24.8961    1.3449  -28.4095 H   0  0  0  0  0  0  0  0  0  0  0  0
  -26.5093    0.9012  -29.0634 H   0  0  0  0  0  0  0  0  0  0  0  0
  -25.6896   -1.5069  -29.0995 H   0  0  0  0  0  0  0  0  0  0  0  0
  -24.0495   -0.8572  -28.7612 H   0  0  0  0  0  0  0  0  0  0  0  0
  -24.1992   -1.0346  -31.1386 H   0  0  0  0  0  0  0  0  0  0  0  0
  -24.4095    0.7086  -30.7594 H   0  0  0  0  0  0  0  0  0  0  0  0
  -26.0176   -0.0397  -32.4660 H   0  0  0  0  0  0  0  0  0  0  0  0
  -26.8548    0.4565  -30.9562 H   0  0  0  0  0  0  0  0  0  0  0  0
  -26.6446   -1.2867  -31.3354 H   0  0  0  0  0  0  0  0  0  0  0  0
  -22.3522   -0.6365  -25.1576 H   0  0  0  0  0  0  0  0  0  0  0  0
  -22.2697   -2.4074  -25.4474 H   0  0  0  0  0  0  0  0  0  0  0  0
  -22.9066   -2.8128  -23.3921 H   0  0  0  0  0  0  0  0  0  0  0  0
  -24.9104   -2.2608  -22.4565 H   0  0  0  0  0  0  0  0  0  0  0  0
  -24.8258   -0.6073  -23.1533 H   0  0  0  0  0  0  0  0  0  0  0  0
  -21.2697   -1.5111  -22.6782 H   0  0  0  0  0  0  0  0  0  0  0  0
  -22.6966   -1.1969  -21.6331 H   0  0  0  0  0  0  0  0  0  0  0  0
  -20.3792    3.0591  -23.6558 H   0  0  0  0  0  0  0  0  0  0  0  0
  -23.0324    6.0042  -22.8034 H   0  0  0  0  0  0  0  0  0  0  0  0
  -21.5425    5.1733  -23.3255 H   0  0  0  0  0  0  0  0  0  0  0  0
  1 23  1  0  0  0  0
  1 24  1  0  0  0  0
  2 19  1  0  0  0  0
  3  2  2  0  0  0  0
  3 21  1  0  0  0  0
  4 18  1  0  0  0  0
  4 25  1  0  0  0  0
  5 26  1  0  0  0  0
  6  5  1  0  0  0  0
  6  7  1  0  0  0  0
  6 27  1  6  0  0  0
  7  8  1  0  0  0  0
  7 28  1  6  0  0  0
  8  9  1  0  0  0  0
  8 29  1  0  0  0  0
  8 30  1  0  0  0  0
  9 10  1  0  0  0  0
 10 11  1  0  0  0  0
 10 31  1  0  0  0  0
 10 32  1  0  0  0  0
 11 12  1  0  0  0  0
 11 33  1  0  0  0  0
 11 34  1  0  0  0  0
 12 13  1  0  0  0  0
 12 35  1  0  0  0  0
 12 36  1  0  0  0  0
 13 37  1  0  0  0  0
 13 38  1  0  0  0  0
 13 39  1  0  0  0  0
 14  7  1  0  0  0  0
 14 40  1  0  0  0  0
 14 41  1  0  0  0  0
 15 14  1  0  0  0  0
 15 16  1  0  0  0  0
 15 42  1  1  0  0  0
 16  6  1  0  0  0  0
 16 43  1  0  0  0  0
 16 44  1  0  0  0  0
 17 15  1  0  0  0  0
 17 22  1  0  0  0  0
 17 45  1  0  0  0  0
 17 46  1  0  0  0  0
 18  2  1  0  0  0  0
 18 47  1  0  0  0  0
 19 20  1  0  0  0  0
 19 23  2  0  0  0  0
 20 48  1  0  0  0  0
 20 49  1  0  0  0  0
 21  1  2  0  0  0  0
 22  3  1  0  0  0  0
 22  4  2  0  0  0  0
M  CHG  1  15   1
M  END
