4wke_ligand
 OpenBabel08222323353D

 37 40  0  0  1  0  0  0  0  0999 V2000
   -8.9900    2.9950   24.4590 C   0  0  0  0  0  0  0  0  0  0  0  0
   -4.6850    0.8260   23.1280 C   0  0  0  0  0  0  0  0  0  0  0  0
   -3.2580    2.1280   19.5020 C   0  0  0  0  0  0  0  0  0  0  0  0
   -2.7720    0.6310   21.3350 C   0  0  0  0  0  0  0  0  0  0  0  0
  -11.4460    5.0720   28.0770 C   0  0  0  0  0  0  0  0  0  0  0  0
  -12.0620    4.7960   26.8770 C   0  0  0  0  0  0  0  0  0  0  0  0
   -4.4210    2.5860   20.0550 C   0  0  0  0  0  0  0  0  0  0  0  0
   -2.4610    1.1900   20.1070 C   0  0  0  0  0  0  0  0  0  0  0  0
   -4.7100    2.0240   21.2680 C   0  0  0  0  0  0  0  0  0  0  0  0
   -3.9530    1.0760   21.9300 C   0  0  0  0  0  0  0  0  0  0  0  0
   -5.8100    1.6260   23.1070 C   0  0  0  0  0  0  0  0  0  0  0  0
   -9.9760    4.4900   26.2430 C   0  0  0  0  0  0  0  0  0  0  0  0
   -8.5150    5.3800   24.5130 C   0  0  0  0  0  0  0  0  0  0  0  0
   -6.6570    5.0070   25.7390 C   0  0  0  0  0  0  0  0  0  0  0  0
   -6.8980    1.8070   24.0240 C   0  0  0  0  0  0  0  0  0  0  0  0
   -8.8060    4.1880   25.3780 C   0  0  2  0  0  0  0  0  0  0  0  0
  -11.2280    4.4670   25.8380 N   0  0  0  0  0  0  0  0  0  0  0  0
   -7.2220    5.7430   24.7350 N   0  0  0  0  0  0  0  0  0  0  0  0
   -7.5940    4.1070   26.1510 N   0  0  0  0  0  0  0  0  0  0  0  0
   -7.8110    2.7670   23.6470 N   0  0  0  0  0  0  0  0  0  0  0  0
   -9.3100    5.9120   23.7540 O   0  0  0  0  0  0  0  0  0  0  0  0
   -5.5240    5.1500   26.1650 O   0  0  0  0  0  0  0  0  0  0  0  0
   -6.9940    1.1720   25.0600 O   0  0  0  0  0  0  0  0  0  0  0  0
   -5.8220    2.3560   21.9620 O   0  0  0  0  0  0  0  0  0  0  0  0
   -9.7440    4.9150   27.8940 S   0  0  0  0  0  0  0  0  0  0  0  0
   -1.0510    0.7800   19.1930 Cl  0  0  0  0  0  0  0  0  0  0  0  0
   -9.8493    3.1813   23.7981 H   0  0  0  0  0  0  0  0  0  0  0  0
   -9.1835    2.1000   25.0685 H   0  0  0  0  0  0  0  0  0  0  0  0
   -4.4067    0.1294   23.9174 H   0  0  0  0  0  0  0  0  0  0  0  0
   -2.9514    2.5244   18.5408 H   0  0  0  0  0  0  0  0  0  0  0  0
   -2.1353   -0.1089   21.8064 H   0  0  0  0  0  0  0  0  0  0  0  0
  -11.9573    5.3469   28.9984 H   0  0  0  0  0  0  0  0  0  0  0  0
  -13.1439    4.8363   26.7596 H   0  0  0  0  0  0  0  0  0  0  0  0
   -5.0544    3.3248   19.5774 H   0  0  0  0  0  0  0  0  0  0  0  0
   -6.7444    6.4595   24.2265 H   0  0  0  0  0  0  0  0  0  0  0  0
   -7.4555    3.4639   26.9041 H   0  0  0  0  0  0  0  0  0  0  0  0
   -7.6612    3.3042   22.8170 H   0  0  0  0  0  0  0  0  0  0  0  0
  1 27  1  0  0  0  0
  1 28  1  0  0  0  0
  2 10  1  0  0  0  0
  2 29  1  0  0  0  0
  3  8  1  0  0  0  0
  3 30  1  0  0  0  0
  4  8  2  0  0  0  0
  4 31  1  0  0  0  0
  5  6  2  0  0  0  0
  5 32  1  0  0  0  0
  6 33  1  0  0  0  0
  7  3  2  0  0  0  0
  7 34  1  0  0  0  0
  8 26  1  0  0  0  0
  9  7  1  0  0  0  0
  9 10  2  0  0  0  0
 10  4  1  0  0  0  0
 11  2  2  0  0  0  0
 11 24  1  0  0  0  0
 12 17  2  0  0  0  0
 12 25  1  0  0  0  0
 13 18  1  0  0  0  0
 13 21  2  0  0  0  0
 14 19  1  0  0  0  0
 14 22  2  0  0  0  0
 15 11  1  0  0  0  0
 15 20  1  0  0  0  0
 15 23  2  0  0  0  0
 16  1  1  6  0  0  0
 16 12  1  0  0  0  0
 16 13  1  0  0  0  0
 16 19  1  0  0  0  0
 17  6  1  0  0  0  0
 18 14  1  0  0  0  0
 18 35  1  0  0  0  0
 19 36  1  0  0  0  0
 20  1  1  0  0  0  0
 20 37  1  0  0  0  0
 24  9  1  0  0  0  0
 25  5  1  0  0  0  0
M  END
