4wks_ligand
 OpenBabel08222323353D

 10  9  0  0  0  0  0  0  0  0999 V2000
   24.7630   26.2380   -0.3680 C   0  0  0  0  0  0  0  0  0  0  0  0
   23.9430   26.6240    0.8820 C   0  0  0  0  0  0  0  0  0  0  0  0
   24.6110   26.2060    2.3560 B   0  0  0  0  0  2  0  0  0  0  0  0
   26.0250   26.1700    2.5430 O   0  0  0  0  0  0  0  0  0  0  0  0
   24.2271   26.5618   -1.2724 H   0  0  0  0  0  0  0  0  0  0  0  0
   24.9002   25.1469   -0.3940 H   0  0  0  0  0  0  0  0  0  0  0  0
   25.7459   26.7303   -0.3282 H   0  0  0  0  0  0  0  0  0  0  0  0
   23.1197   27.2919    0.5885 H   0  0  0  0  0  0  0  0  0  0  0  0
   24.5943   27.1398    1.6029 H   0  0  0  0  0  0  0  0  0  0  0  0
   26.2186   25.9138    3.4370 H   0  0  0  0  0  0  0  0  0  0  0  0
  1  2  1  0  0  0  0
  1  5  1  0  0  0  0
  1  6  1  0  0  0  0
  1  7  1  0  0  0  0
  2  3  1  0  0  0  0
  2  8  1  0  0  0  0
  2  9  1  0  0  0  0
  3  4  1  0  0  0  0
  4 10  1  0  0  0  0
M  END
