4wm9_ligand
 OpenBabel08222323353D

 30 30  0  0  1  0  0  0  0  0999 V2000
   29.7880   -1.2800   14.6990 O   0  0  0  0  0  0  0  0  0  0  0  0
   29.7200   -0.1800   13.8710 C   0  0  0  0  0  0  0  0  0  0  0  0
   30.5750    0.8060   13.8150 N   0  0  0  0  0  0  0  0  0  0  0  0
   30.4230    1.9530   12.8650 C   0  0  0  0  0  0  0  0  0  0  0  0
   31.7560    0.8940   14.7010 C   0  0  2  0  0  0  0  0  0  0  0  0
   31.4290    1.8250   15.8510 C   0  0  0  0  0  0  0  0  0  0  0  0
   30.3180    2.3180   16.0070 O   0  0  0  0  0  0  0  0  0  0  0  0
   32.3790    2.1000   16.7070 N   0  0  0  0  0  0  0  0  0  0  0  0
   33.0060    1.3700   13.9690 C   0  0  0  0  0  0  0  0  0  0  0  0
   32.8760    2.1790   12.9060 C   0  0  0  0  0  0  0  0  0  0  0  0
   31.6650    2.1090   11.9840 C   0  0  1  0  0  0  0  0  0  0  0  0
   31.7900    1.0630   10.9740 N   0  3  0  0  0  0  0  0  0  0  0  0
   31.7590   -0.3090   11.3880 O   0  0  0  0  0  0  0  0  0  0  0  0
   32.0580   -1.7860   10.8090 S   0  0  0  0  0  0  0  0  0  0  0  0
   31.8900   -2.6590   11.9580 O   0  0  0  0  0  1  0  0  0  0  0  0
   33.4300   -2.0570   10.3420 O   0  0  0  0  0  1  0  0  0  0  0  0
   31.1330   -2.1520    9.7290 O   0  0  0  0  0  1  0  0  0  0  0  0
   28.8675   -0.1277   13.1954 H   0  0  0  0  0  0  0  0  0  0  0  0
   30.2726    2.8783   13.4405 H   0  0  0  0  0  0  0  0  0  0  0  0
   29.5478    1.7740   12.2231 H   0  0  0  0  0  0  0  0  0  0  0  0
   31.9607   -0.1086   15.1047 H   0  0  0  0  0  0  0  0  0  0  0  0
   32.1964    2.7109   17.4774 H   0  0  0  0  0  0  0  0  0  0  0  0
   33.2879    1.6994   16.5911 H   0  0  0  0  0  0  0  0  0  0  0  0
   33.5385    0.4711   13.6250 H   0  0  0  0  0  0  0  0  0  0  0  0
   33.6252    1.9039   14.7049 H   0  0  0  0  0  0  0  0  0  0  0  0
   33.7569    1.9993   12.2721 H   0  0  0  0  0  0  0  0  0  0  0  0
   32.9080    3.2073   13.2953 H   0  0  0  0  0  0  0  0  0  0  0  0
   31.5851    3.0667   11.4488 H   0  0  0  0  0  0  0  0  0  0  0  0
   32.6693    1.2099   10.5036 H   0  0  0  0  0  0  0  0  0  0  0  0
   31.0336    1.1915   10.3202 H   0  0  0  0  0  0  0  0  0  0  0  0
  1  2  2  0  0  0  0
  2  3  1  0  0  0  0
  2 18  1  0  0  0  0
  3  4  1  0  0  0  0
  3  5  1  0  0  0  0
  4 11  1  0  0  0  0
  4 19  1  0  0  0  0
  4 20  1  0  0  0  0
  5  6  1  0  0  0  0
  5  9  1  0  0  0  0
  5 21  1  1  0  0  0
  6  7  2  0  0  0  0
  6  8  1  0  0  0  0
  8 22  1  0  0  0  0
  8 23  1  0  0  0  0
  9 10  1  0  0  0  0
  9 24  1  0  0  0  0
  9 25  1  0  0  0  0
 10 11  1  0  0  0  0
 10 26  1  0  0  0  0
 10 27  1  0  0  0  0
 11 12  1  0  0  0  0
 11 28  1  6  0  0  0
 12 13  1  0  0  0  0
 12 29  1  0  0  0  0
 12 30  1  0  0  0  0
 13 14  1  0  0  0  0
 14 15  1  0  0  0  0
 14 16  1  0  0  0  0
 14 17  1  0  0  0  0
M  CHG  1  12   1
M  END
