4wmv_ligand
 OpenBabel08222323353D

 17 18  0  0  0  0  0  0  0  0999 V2000
  113.8430  193.2530   35.7090 C   0  0  0  0  0  0  0  0  0  0  0  0
  116.8690  192.3560   34.0880 O   0  5  0  0  0  0  0  0  0  0  0  0
  115.6510  192.0810   34.2560 C   0  0  0  0  0  0  0  0  0  0  0  0
  115.2480  190.8890   34.1280 O   0  0  0  0  0  0  0  0  0  0  0  0
  114.6810  193.1940   34.6080 C   0  0  0  0  0  0  0  0  0  0  0  0
  114.4000  194.6550   33.7280 S   0  0  0  0  0  0  0  0  0  0  0  0
  113.2020  195.3120   34.7920 C   0  0  0  0  0  0  0  0  0  0  0  0
  112.4600  196.4940   34.7780 C   0  0  0  0  0  0  0  0  0  0  0  0
  111.5460  196.7520   35.7970 C   0  0  0  0  0  0  0  0  0  0  0  0
  110.8340  197.8900   35.7810 F   0  0  0  0  0  0  0  0  0  0  0  0
  111.3780  195.8280   36.8300 C   0  0  0  0  0  0  0  0  0  0  0  0
  112.1150  194.6530   36.8470 C   0  0  0  0  0  0  0  0  0  0  0  0
  113.0340  194.3960   35.8160 C   0  0  0  0  0  0  0  0  0  0  0  0
  113.7900  191.9730   36.8920 Cl  0  0  0  0  0  0  0  0  0  0  0  0
  112.5948  197.2101   33.9754 H   0  0  0  0  0  0  0  0  0  0  0  0
  110.6675  196.0300   37.6234 H   0  0  0  0  0  0  0  0  0  0  0  0
  111.9827  193.9377   37.6507 H   0  0  0  0  0  0  0  0  0  0  0  0
  1 13  1  0  0  0  0
  1 14  1  0  0  0  0
  3  2  1  0  0  0  0
  3  4  2  0  0  0  0
  3  5  1  0  0  0  0
  5  1  2  0  0  0  0
  5  6  1  0  0  0  0
  6  7  1  0  0  0  0
  7  8  2  0  0  0  0
  7 13  1  0  0  0  0
  8  9  1  0  0  0  0
  8 15  1  0  0  0  0
  9 10  1  0  0  0  0
  9 11  2  0  0  0  0
 11 12  1  0  0  0  0
 11 16  1  0  0  0  0
 12 13  2  0  0  0  0
 12 17  1  0  0  0  0
M  CHG  1   2  -1
M  END
