4wmx_ligand
 OpenBabel08222323353D

 33 34  0  0  0  0  0  0  0  0999 V2000
   10.8890  192.2890   37.9830 C   0  0  0  0  0  0  0  0  0  0  0  0
   11.3990  192.4330   36.7000 C   0  0  0  0  0  0  0  0  0  0  0  0
   10.2780  192.8920   33.2820 O   0  5  0  0  0  0  0  0  0  0  0  0
   11.0900  192.7880   34.2350 C   0  0  0  0  0  0  0  0  0  0  0  0
   12.3360  192.8210   34.0330 O   0  0  0  0  0  0  0  0  0  0  0  0
   10.5330  192.6330   35.6380 C   0  0  0  0  0  0  0  0  0  0  0  0
    9.1600  192.6840   35.8430 C   0  0  0  0  0  0  0  0  0  0  0  0
    8.6480  192.5430   37.1250 C   0  0  0  0  0  0  0  0  0  0  0  0
    9.5120  192.3430   38.1960 C   0  0  0  0  0  0  0  0  0  0  0  0
    8.9300  192.1870   39.6020 C   0  0  0  0  0  0  0  0  0  0  0  0
    9.7170  192.0300   40.6520 C   0  0  0  0  0  0  0  0  0  0  0  0
   12.8310  192.3820   36.4530 N   0  0  0  0  0  0  0  0  0  0  0  0
   13.8020  193.5700   37.2160 S   0  0  0  0  0  0  0  0  0  0  0  0
   13.6590  193.4600   38.6580 O   0  0  0  0  0  0  0  0  0  0  0  0
   15.2270  193.4250   36.9460 O   0  0  0  0  0  0  0  0  0  0  0  0
   13.2210  195.2230   36.7620 C   0  0  0  0  0  0  0  0  0  0  0  0
   13.6990  195.8280   35.6150 C   0  0  0  0  0  0  0  0  0  0  0  0
   13.2380  197.0940   35.2890 C   0  0  0  0  0  0  0  0  0  0  0  0
   12.3150  197.7320   36.1070 C   0  0  0  0  0  0  0  0  0  0  0  0
   11.8490  197.1190   37.2510 C   0  0  0  0  0  0  0  0  0  0  0  0
   12.3110  195.8610   37.5850 C   0  0  0  0  0  0  0  0  0  0  0  0
   11.5612  192.1346   38.8193 H   0  0  0  0  0  0  0  0  0  0  0  0
    8.4904  192.8335   35.0038 H   0  0  0  0  0  0  0  0  0  0  0  0
    7.5778  192.5886   37.2911 H   0  0  0  0  0  0  0  0  0  0  0  0
    7.8499  192.2056   39.7399 H   0  0  0  0  0  0  0  0  0  0  0  0
    9.2842  191.9205   41.6453 H   0  0  0  0  0  0  0  0  0  0  0  0
   10.7983  192.0101   40.5239 H   0  0  0  0  0  0  0  0  0  0  0  0
   13.2327  191.6824   35.8621 H   0  0  0  0  0  0  0  0  0  0  0  0
   14.4201  195.3226   34.9829 H   0  0  0  0  0  0  0  0  0  0  0  0
   13.5988  197.5870   34.3936 H   0  0  0  0  0  0  0  0  0  0  0  0
   11.9575  198.7210   35.8439 H   0  0  0  0  0  0  0  0  0  0  0  0
   11.1255  197.6207   37.8834 H   0  0  0  0  0  0  0  0  0  0  0  0
   11.9616  195.3755   38.4890 H   0  0  0  0  0  0  0  0  0  0  0  0
  1  9  1  0  0  0  0
  1 22  1  0  0  0  0
  2  1  2  0  0  0  0
  2 12  1  0  0  0  0
  4  3  1  0  0  0  0
  4  5  2  0  0  0  0
  4  6  1  0  0  0  0
  6  2  1  0  0  0  0
  6  7  2  0  0  0  0
  7  8  1  0  0  0  0
  7 23  1  0  0  0  0
  8  9  2  0  0  0  0
  8 24  1  0  0  0  0
  9 10  1  0  0  0  0
 10 11  2  0  0  0  0
 10 25  1  0  0  0  0
 11 26  1  0  0  0  0
 11 27  1  0  0  0  0
 12 13  1  0  0  0  0
 12 28  1  0  0  0  0
 13 14  2  0  0  0  0
 13 15  2  0  0  0  0
 13 16  1  0  0  0  0
 16 17  2  0  0  0  0
 16 21  1  0  0  0  0
 17 18  1  0  0  0  0
 17 29  1  0  0  0  0
 18 19  2  0  0  0  0
 18 30  1  0  0  0  0
 19 20  1  0  0  0  0
 19 31  1  0  0  0  0
 20 21  2  0  0  0  0
 20 32  1  0  0  0  0
 21 33  1  0  0  0  0
M  CHG  1   3  -1
M  END
