4wn1_ligand
 OpenBabel08222323353D

 54 58  0  0  0  0  0  0  0  0999 V2000
   27.0660    5.1970   54.1440 C   0  0  0  0  0  0  0  0  0  0  0  0
   27.3490    4.5280   55.3110 C   0  0  0  0  0  0  0  0  0  0  0  0
   25.7760    5.5620   53.8530 C   0  0  0  0  0  0  0  0  0  0  0  0
   23.5160    5.6390   54.4110 C   0  0  0  0  0  0  0  0  0  0  0  0
   21.8590    3.2500   58.2460 C   0  0  0  0  0  0  0  0  0  0  0  0
   20.6250    4.9540   57.1090 C   0  0  0  0  0  0  0  0  0  0  0  0
   26.3320    4.2260   56.1820 C   0  0  0  0  0  0  0  0  0  0  0  0
   20.7350    2.8860   58.9540 C   0  0  0  0  0  0  0  0  0  0  0  0
   19.5000    4.6200   57.8100 C   0  0  0  0  0  0  0  0  0  0  0  0
   22.5350    5.3260   55.3090 C   0  0  0  0  0  0  0  0  0  0  0  0
   14.6780    1.3910   59.6910 C   0  0  0  0  0  0  0  0  0  0  0  0
   24.7840    5.2530   54.7370 C   0  0  0  0  0  0  0  0  0  0  0  0
   21.8000    4.2780   57.3240 C   0  0  0  0  0  0  0  0  0  0  0  0
   15.9380    1.8920   59.9440 C   0  0  0  0  0  0  0  0  0  0  0  0
   25.0350    4.5850   55.9170 C   0  0  0  0  0  0  0  0  0  0  0  0
   19.5750    3.5880   58.7050 C   0  0  0  0  0  0  0  0  0  0  0  0
   22.8690    4.6480   56.4610 C   0  0  0  0  0  0  0  0  0  0  0  0
   16.5460    1.9790   58.6650 C   0  0  0  0  0  0  0  0  0  0  0  0
   17.6730    3.0440   61.2510 C   0  0  0  0  0  0  0  0  0  0  0  0
   18.3740    3.3750   62.3380 C   0  0  0  0  0  0  0  0  0  0  0  0
   16.1080    1.7110   62.3610 C   0  0  0  0  0  0  0  0  0  0  0  0
   16.5240    2.2020   61.1980 C   0  0  0  0  0  0  0  0  0  0  0  0
   17.8860    2.8170   63.6060 C   0  0  0  0  0  0  0  0  0  0  0  0
   13.5120    0.7120   57.5470 C   0  0  0  0  0  0  0  0  0  0  0  0
   16.2610    1.4610   64.7550 C   0  0  0  0  0  0  0  0  0  0  0  0
   17.8790    2.4370   58.3170 C   0  0  0  0  0  0  0  0  0  0  0  0
   24.0910    4.2570   56.7940 N   0  0  0  0  0  0  0  0  0  0  0  0
   15.7440    1.5750   57.6730 N   0  0  0  0  0  0  0  0  0  0  0  0
   14.6200    1.2300   58.3260 N   0  0  0  0  0  0  0  0  0  0  0  0
   16.7590    2.0230   63.5320 N   0  0  0  0  0  0  0  0  0  0  0  0
   18.4910    3.0930   64.6270 O   0  0  0  0  0  0  0  0  0  0  0  0
   18.4030    3.2960   59.3240 O   0  0  0  0  0  0  0  0  0  0  0  0
   27.8647    5.4369   53.4515 H   0  0  0  0  0  0  0  0  0  0  0  0
   28.3685    4.2409   55.5419 H   0  0  0  0  0  0  0  0  0  0  0  0
   25.5481    6.0887   52.9334 H   0  0  0  0  0  0  0  0  0  0  0  0
   23.2989    6.1658   53.4888 H   0  0  0  0  0  0  0  0  0  0  0  0
   22.7942    2.7278   58.4127 H   0  0  0  0  0  0  0  0  0  0  0  0
   20.5890    5.7559   56.3805 H   0  0  0  0  0  0  0  0  0  0  0  0
   26.5586    3.6928   57.0982 H   0  0  0  0  0  0  0  0  0  0  0  0
   20.7615    2.0797   59.6781 H   0  0  0  0  0  0  0  0  0  0  0  0
   18.5717    5.1594   57.6605 H   0  0  0  0  0  0  0  0  0  0  0  0
   21.5060    5.6078   55.1174 H   0  0  0  0  0  0  0  0  0  0  0  0
   13.8964    1.1702   60.4165 H   0  0  0  0  0  0  0  0  0  0  0  0
   18.0151    3.4613   60.3051 H   0  0  0  0  0  0  0  0  0  0  0  0
   19.2517    4.0177   62.2877 H   0  0  0  0  0  0  0  0  0  0  0  0
   15.2405    1.0532   62.3872 H   0  0  0  0  0  0  0  0  0  0  0  0
   13.7822    0.7113   56.4807 H   0  0  0  0  0  0  0  0  0  0  0  0
   12.6272    1.3472   57.7006 H   0  0  0  0  0  0  0  0  0  0  0  0
   13.2862   -0.3154   57.8687 H   0  0  0  0  0  0  0  0  0  0  0  0
   15.3666    0.8566   64.5433 H   0  0  0  0  0  0  0  0  0  0  0  0
   15.9994    2.2715   65.4512 H   0  0  0  0  0  0  0  0  0  0  0  0
   17.0351    0.8241   65.2078 H   0  0  0  0  0  0  0  0  0  0  0  0
   17.8336    2.9854   57.3645 H   0  0  0  0  0  0  0  0  0  0  0  0
   18.5414    1.5657   58.2073 H   0  0  0  0  0  0  0  0  0  0  0  0
  1 33  1  0  0  0  0
  2  1  2  0  0  0  0
  2 34  1  0  0  0  0
  3  1  1  0  0  0  0
  3 35  1  0  0  0  0
  4 12  1  0  0  0  0
  4 36  1  0  0  0  0
  5 13  1  0  0  0  0
  5 37  1  0  0  0  0
  6 13  2  0  0  0  0
  6 38  1  0  0  0  0
  7  2  1  0  0  0  0
  7 39  1  0  0  0  0
  8  5  2  0  0  0  0
  8 40  1  0  0  0  0
  9  6  1  0  0  0  0
  9 41  1  0  0  0  0
 10  4  2  0  0  0  0
 10 42  1  0  0  0  0
 11 29  1  0  0  0  0
 11 43  1  0  0  0  0
 12  3  2  0  0  0  0
 13 17  1  0  0  0  0
 14 11  2  0  0  0  0
 14 22  1  0  0  0  0
 15  7  2  0  0  0  0
 15 12  1  0  0  0  0
 16  8  1  0  0  0  0
 16  9  2  0  0  0  0
 17 10  1  0  0  0  0
 17 27  2  0  0  0  0
 18 14  1  0  0  0  0
 18 28  2  0  0  0  0
 19 20  2  0  0  0  0
 19 44  1  0  0  0  0
 20 23  1  0  0  0  0
 20 45  1  0  0  0  0
 21 30  1  0  0  0  0
 21 46  1  0  0  0  0
 22 19  1  0  0  0  0
 22 21  2  0  0  0  0
 23 31  2  0  0  0  0
 24 47  1  0  0  0  0
 24 48  1  0  0  0  0
 24 49  1  0  0  0  0
 25 50  1  0  0  0  0
 25 51  1  0  0  0  0
 25 52  1  0  0  0  0
 26 18  1  0  0  0  0
 26 32  1  0  0  0  0
 26 53  1  0  0  0  0
 26 54  1  0  0  0  0
 27 15  1  0  0  0  0
 28 29  1  0  0  0  0
 29 24  1  0  0  0  0
 30 23  1  0  0  0  0
 30 25  1  0  0  0  0
 32 16  1  0  0  0  0
M  END
