4wnp_ligand
 OpenBabel08222323353D

 50 55  0  0  0  0  0  0  0  0999 V2000
  103.1500   43.9610   13.0650 C   0  0  0  0  0  0  0  0  0  0  0  0
  104.3390   45.6240   13.4470 C   0  0  0  0  0  0  0  0  0  0  0  0
  101.9670   42.8740   15.1950 C   0  0  0  0  0  0  0  0  0  0  0  0
  103.3130   44.3770   18.9570 C   0  0  0  0  0  0  0  0  0  0  0  0
  104.6680   44.1610   19.1100 C   0  0  0  0  0  0  0  0  0  0  0  0
  103.7120   45.9230   17.1620 C   0  0  0  0  0  0  0  0  0  0  0  0
   99.8940   41.1120   20.0380 C   0  0  0  0  0  0  0  0  0  0  0  0
   99.1110   40.4790   21.0410 C   0  0  0  0  0  0  0  0  0  0  0  0
   98.2360   39.4780   20.6690 C   0  0  0  0  0  0  0  0  0  0  0  0
   98.1060   39.1030   19.3190 C   0  0  0  0  0  0  0  0  0  0  0  0
   98.8710   39.7300   18.3300 C   0  0  0  0  0  0  0  0  0  0  0  0
   99.7840   40.7660   18.7150 C   0  0  0  0  0  0  0  0  0  0  0  0
  100.6020   41.4430   17.7730 C   0  0  0  0  0  0  0  0  0  0  0  0
  100.4910   41.0760   16.4070 N   0  0  0  0  0  0  0  0  0  0  0  0
  101.1710   41.7090   15.3070 C   0  0  0  0  0  0  0  0  0  0  0  0
  101.0470   41.1480   14.0830 N   0  0  0  0  0  0  0  0  0  0  0  0
  101.7750   41.8980   13.2140 N   0  0  0  0  0  0  0  0  0  0  0  0
  102.3310   42.9500   13.8300 C   0  0  0  0  0  0  0  0  0  0  0  0
  102.8680   45.4300   13.2740 C   0  0  0  0  0  0  0  0  0  0  0  0
  104.4820   44.1570   13.6980 C   0  0  0  0  0  0  0  0  0  0  0  0
  101.4530   42.4160   18.1370 N   0  0  0  0  0  0  0  0  0  0  0  0
  101.5320   42.7320   19.4490 C   0  0  0  0  0  0  0  0  0  0  0  0
  102.4420   43.7250   19.8670 N   0  0  0  0  0  0  0  0  0  0  0  0
  105.5700   44.8320   18.2540 C   0  0  0  0  0  0  0  0  0  0  0  0
  106.9270   44.7920   18.1580 N   0  0  0  0  0  0  0  0  0  0  0  0
  107.3160   45.6330   17.1700 C   0  0  0  0  0  0  0  0  0  0  0  0
  106.2100   46.1930   16.6330 N   0  0  0  0  0  0  0  0  0  0  0  0
  105.1000   45.6990   17.3020 C   0  0  0  0  0  0  0  0  0  0  0  0
  102.8190   45.2630   18.0080 C   0  0  0  0  0  0  0  0  0  0  0  0
  100.7870   42.1060   20.3950 N   0  0  0  0  0  0  0  0  0  0  0  0
  103.1780   43.6725   12.0039 H   0  0  0  0  0  0  0  0  0  0  0  0
  104.6139   46.2580   14.3028 H   0  0  0  0  0  0  0  0  0  0  0  0
  104.8572   45.9809   12.5448 H   0  0  0  0  0  0  0  0  0  0  0  0
  102.2411   43.5652   15.9907 H   0  0  0  0  0  0  0  0  0  0  0  0
  105.0345   43.4866   19.8755 H   0  0  0  0  0  0  0  0  0  0  0  0
  103.3430   46.6029   16.4026 H   0  0  0  0  0  0  0  0  0  0  0  0
   99.1992   40.7768   22.0795 H   0  0  0  0  0  0  0  0  0  0  0  0
   97.6430   38.9757   21.4247 H   0  0  0  0  0  0  0  0  0  0  0  0
   97.4071   38.3216   19.0432 H   0  0  0  0  0  0  0  0  0  0  0  0
   98.7752   39.4376   17.2906 H   0  0  0  0  0  0  0  0  0  0  0  0
   99.8687   40.2866   16.1823 H   0  0  0  0  0  0  0  0  0  0  0  0
  101.8849   41.6853   12.2122 H   0  0  0  0  0  0  0  0  0  0  0  0
  102.2675   45.6589   14.1667 H   0  0  0  0  0  0  0  0  0  0  0  0
  102.4377   45.9428   12.4012 H   0  0  0  0  0  0  0  0  0  0  0  0
  105.3159   43.6823   13.1602 H   0  0  0  0  0  0  0  0  0  0  0  0
  104.5260   43.8793   14.7614 H   0  0  0  0  0  0  0  0  0  0  0  0
  102.4751   43.9846   20.8632 H   0  0  0  0  0  0  0  0  0  0  0  0
  107.5538   44.2179   18.7397 H   0  0  0  0  0  0  0  0  0  0  0  0
  108.3428   45.8246   16.8618 H   0  0  0  0  0  0  0  0  0  0  0  0
  101.7527   45.4398   17.9254 H   0  0  0  0  0  0  0  0  0  0  0  0
  1 19  1  0  0  0  0
  1 20  1  0  0  0  0
  1 31  1  0  0  0  0
  2 32  1  0  0  0  0
  2 33  1  0  0  0  0
  3 18  2  0  0  0  0
  3 34  1  0  0  0  0
  4  5  2  0  0  0  0
  4 29  1  0  0  0  0
  5 24  1  0  0  0  0
  5 35  1  0  0  0  0
  6 28  1  0  0  0  0
  6 36  1  0  0  0  0
  7  8  2  0  0  0  0
  7 30  1  0  0  0  0
  8  9  1  0  0  0  0
  8 37  1  0  0  0  0
  9 38  1  0  0  0  0
 10  9  2  0  0  0  0
 10 39  1  0  0  0  0
 11 10  1  0  0  0  0
 11 40  1  0  0  0  0
 12  7  1  0  0  0  0
 12 11  2  0  0  0  0
 13 12  1  0  0  0  0
 13 14  1  0  0  0  0
 14 15  1  0  0  0  0
 14 41  1  0  0  0  0
 15  3  1  0  0  0  0
 15 16  2  0  0  0  0
 16 17  1  0  0  0  0
 17 18  1  0  0  0  0
 17 42  1  0  0  0  0
 18  1  1  0  0  0  0
 19  2  1  0  0  0  0
 19 43  1  0  0  0  0
 19 44  1  0  0  0  0
 20  2  1  0  0  0  0
 20 45  1  0  0  0  0
 20 46  1  0  0  0  0
 21 13  2  0  0  0  0
 22 21  1  0  0  0  0
 22 23  1  0  0  0  0
 22 30  2  0  0  0  0
 23  4  1  0  0  0  0
 23 47  1  0  0  0  0
 24 25  1  0  0  0  0
 24 28  2  0  0  0  0
 25 26  1  0  0  0  0
 25 48  1  0  0  0  0
 26 27  2  0  0  0  0
 26 49  1  0  0  0  0
 27 28  1  0  0  0  0
 29  6  2  0  0  0  0
 29 50  1  0  0  0  0
M  END
