4wpn_ligand
 OpenBabel08222323353D

 59 61  0  0  1  0  0  0  0  0999 V2000
   38.4730   19.5130   16.4480 C   0  0  0  0  0  0  0  0  0  0  0  0
   37.5260   19.0490   15.4080 C   0  0  0  0  0  0  0  0  0  0  0  0
   37.1920   19.9130   14.2860 C   0  0  0  0  0  0  0  0  0  0  0  0
   36.1230   18.0200   14.1210 C   0  0  0  0  0  0  0  0  0  0  0  0
   36.8550   17.9070   15.2610 N   0  0  0  0  0  0  0  0  0  0  0  0
   36.8920   16.7580   16.1700 C   0  0  0  0  0  0  0  0  0  0  0  0
   38.3250   16.3160   16.4660 C   0  0  0  0  0  0  0  0  0  0  0  0
   37.4240   13.9730   16.8310 C   0  0  0  0  0  0  0  0  0  0  0  0
   39.8970   14.4050   16.8460 C   0  0  0  0  0  0  0  0  0  0  0  0
   35.2060   16.9480   13.5670 C   0  0  0  0  0  0  0  0  0  0  0  0
   35.0050   14.4920   13.8180 C   0  0  0  0  0  0  0  0  0  0  0  0
   34.9340   13.5940   12.5860 C   0  0  0  0  0  0  0  0  0  0  0  0
   36.8930   14.6000   11.5840 C   0  0  0  0  0  0  0  0  0  0  0  0
   37.0820   15.5650   12.7510 C   0  0  0  0  0  0  0  0  0  0  0  0
   36.5120   12.1230   11.3000 C   0  0  0  0  0  0  0  0  0  0  0  0
   39.9470   21.3380   17.2610 C   0  0  0  0  0  0  0  0  0  0  0  0
   38.7860   18.8060   17.4280 O   0  0  0  0  0  0  0  0  0  0  0  0
   39.0030   20.8100   16.2710 N   0  0  0  0  0  0  0  0  0  0  0  0
   38.6320   21.5990   15.1460 C   0  0  0  0  0  0  0  0  0  0  0  0
   39.1280   22.7390   15.0270 O   0  0  0  0  0  0  0  0  0  0  0  0
   37.7200   21.1340   14.1540 N   0  0  0  0  0  0  0  0  0  0  0  0
   37.3690   21.9870   13.0150 C   0  0  0  0  0  0  0  0  0  0  0  0
   36.3220   19.2320   13.5190 N   0  0  0  0  0  0  0  0  0  0  0  0
   38.5530   14.8210   16.2550 C   0  0  0  0  0  0  0  0  0  0  0  0
   35.8750   15.6530   13.5840 N   0  3  1  0  0  0  0  0  0  0  0  0
   36.3780   13.3180   12.2110 C   0  0  2  0  0  0  0  0  0  0  0  0
   36.5610   11.0120   11.8000 O   0  0  0  0  0  0  0  0  0  0  0  0
   36.5830   12.2810    9.9770 N   0  0  0  0  0  0  0  0  0  0  0  0
   36.3491   15.9204   15.7078 H   0  0  0  0  0  0  0  0  0  0  0  0
   36.4023   17.0354   17.1151 H   0  0  0  0  0  0  0  0  0  0  0  0
   38.5560   16.5597   17.5135 H   0  0  0  0  0  0  0  0  0  0  0  0
   39.0051   16.8697   15.8021 H   0  0  0  0  0  0  0  0  0  0  0  0
   37.6372   12.9087   16.6527 H   0  0  0  0  0  0  0  0  0  0  0  0
   36.4762   14.2439   16.3429 H   0  0  0  0  0  0  0  0  0  0  0  0
   37.3443   14.1546   17.9130 H   0  0  0  0  0  0  0  0  0  0  0  0
   40.6950   15.0288   16.4170 H   0  0  0  0  0  0  0  0  0  0  0  0
   40.0904   13.3483   16.6093 H   0  0  0  0  0  0  0  0  0  0  0  0
   39.8745   14.5381   17.9377 H   0  0  0  0  0  0  0  0  0  0  0  0
   34.9338   17.2024   12.5320 H   0  0  0  0  0  0  0  0  0  0  0  0
   34.2962   16.8947   14.1829 H   0  0  0  0  0  0  0  0  0  0  0  0
   35.4032   13.9106   14.6626 H   0  0  0  0  0  0  0  0  0  0  0  0
   33.9926   14.8465   14.0617 H   0  0  0  0  0  0  0  0  0  0  0  0
   34.4134   14.1072   11.7641 H   0  0  0  0  0  0  0  0  0  0  0  0
   34.4108   12.6557   12.8222 H   0  0  0  0  0  0  0  0  0  0  0  0
   37.8497   14.4219   11.0712 H   0  0  0  0  0  0  0  0  0  0  0  0
   36.1614   15.0001   10.8666 H   0  0  0  0  0  0  0  0  0  0  0  0
   37.3144   16.5640   12.3535 H   0  0  0  0  0  0  0  0  0  0  0  0
   37.9190   15.2136   13.3722 H   0  0  0  0  0  0  0  0  0  0  0  0
   40.1082   20.5887   18.0500 H   0  0  0  0  0  0  0  0  0  0  0  0
   39.5363   22.2563   17.7059 H   0  0  0  0  0  0  0  0  0  0  0  0
   40.9047   21.5650   16.7698 H   0  0  0  0  0  0  0  0  0  0  0  0
   36.6579   21.4563   12.3649 H   0  0  0  0  0  0  0  0  0  0  0  0
   38.2777   22.2287   12.4441 H   0  0  0  0  0  0  0  0  0  0  0  0
   36.9079   22.9162   13.3811 H   0  0  0  0  0  0  0  0  0  0  0  0
   38.5865   14.6376   15.1709 H   0  0  0  0  0  0  0  0  0  0  0  0
   36.3165   15.6963   14.4891 H   0  0  0  0  0  0  0  0  0  0  0  0
   36.9544   13.1094   13.1243 H   0  0  0  0  0  0  0  0  0  0  0  0
   36.6717   11.4821    9.3821 H   0  0  0  0  0  0  0  0  0  0  0  0
   36.5475   13.1983    9.5804 H   0  0  0  0  0  0  0  0  0  0  0  0
  1 17  2  0  0  0  0
  1 18  1  0  0  0  0
  2  1  1  0  0  0  0
  3  2  2  0  0  0  0
  3 21  1  0  0  0  0
  4  5  1  0  0  0  0
  4 23  2  0  0  0  0
  5  2  1  0  0  0  0
  5  6  1  0  0  0  0
  6  7  1  0  0  0  0
  6 29  1  0  0  0  0
  6 30  1  0  0  0  0
  7 24  1  0  0  0  0
  7 31  1  0  0  0  0
  7 32  1  0  0  0  0
  8 33  1  0  0  0  0
  8 34  1  0  0  0  0
  8 35  1  0  0  0  0
  9 36  1  0  0  0  0
  9 37  1  0  0  0  0
  9 38  1  0  0  0  0
 10  4  1  0  0  0  0
 10 39  1  0  0  0  0
 10 40  1  0  0  0  0
 11 25  1  0  0  0  0
 11 41  1  0  0  0  0
 11 42  1  0  0  0  0
 12 11  1  0  0  0  0
 12 43  1  0  0  0  0
 12 44  1  0  0  0  0
 13 14  1  0  0  0  0
 13 26  1  0  0  0  0
 13 45  1  0  0  0  0
 13 46  1  0  0  0  0
 14 25  1  0  0  0  0
 14 47  1  0  0  0  0
 14 48  1  0  0  0  0
 15 27  2  0  0  0  0
 15 28  1  0  0  0  0
 16 49  1  0  0  0  0
 16 50  1  0  0  0  0
 16 51  1  0  0  0  0
 18 16  1  0  0  0  0
 18 19  1  0  0  0  0
 19 20  2  0  0  0  0
 19 21  1  0  0  0  0
 21 22  1  0  0  0  0
 22 52  1  0  0  0  0
 22 53  1  0  0  0  0
 22 54  1  0  0  0  0
 23  3  1  0  0  0  0
 24  8  1  0  0  0  0
 24  9  1  0  0  0  0
 24 55  1  0  0  0  0
 25 10  1  0  0  0  0
 25 56  1  1  0  0  0
 26 12  1  0  0  0  0
 26 15  1  0  0  0  0
 26 57  1  1  0  0  0
 28 58  1  0  0  0  0
 28 59  1  0  0  0  0
M  CHG  1  25   1
M  END
