4wq2_ligand
 OpenBabel08222323353D

 25 26  0  0  1  0  0  0  0  0999 V2000
    4.4870    9.1370   35.2340 O   0  5  0  0  0  0  0  0  0  0  0  0
    5.1840    8.6020   34.3580 C   0  0  0  0  0  0  0  0  0  0  0  0
    4.6600    8.2460   33.2860 O   0  0  0  0  0  0  0  0  0  0  0  0
    6.6660    8.3430   34.6330 C   0  0  2  0  0  0  0  0  0  0  0  0
    7.2580    8.9170   36.1150 S   0  0  0  0  0  0  0  0  0  0  0  0
    7.5650    7.7910   33.5050 C   0  0  0  0  0  0  0  0  0  0  0  0
    8.8520    7.4140   33.6480 C   0  0  0  0  0  0  0  0  0  0  0  0
    9.4770    6.6760   32.7030 C   0  0  0  0  0  0  0  0  0  0  0  0
    9.1060    6.2270   31.4970 C   0  0  0  0  0  0  0  0  0  0  0  0
   10.0050    5.5130   30.6660 C   0  0  0  0  0  0  0  0  0  0  0  0
   11.2430    5.3180   31.1610 C   0  0  0  0  0  0  0  0  0  0  0  0
   12.4400    4.2430   30.3440 Br  0  0  0  0  0  0  0  0  0  0  0  0
   11.5730    5.7730   32.4340 C   0  0  0  0  0  0  0  0  0  0  0  0
   10.7270    6.4930   33.1540 C   0  0  0  0  0  0  0  0  0  0  0  0
   10.8500    7.0480   34.3730 N   0  0  0  0  0  0  0  0  0  0  0  0
    9.6740    7.6110   34.6960 C   0  0  0  0  0  0  0  0  0  0  0  0
    6.4859    7.3353   35.0356 H   0  0  0  0  0  0  0  0  0  0  0  0
    8.2381    8.6944   36.1929 H   0  0  0  0  0  0  0  0  0  0  0  0
    7.5742    8.5721   32.7306 H   0  0  0  0  0  0  0  0  0  0  0  0
    7.0414    6.9022   33.1232 H   0  0  0  0  0  0  0  0  0  0  0  0
    8.0965    6.4137   31.1490 H   0  0  0  0  0  0  0  0  0  0  0  0
    9.7136    5.1451   29.6889 H   0  0  0  0  0  0  0  0  0  0  0  0
   12.5463    5.5321   32.8460 H   0  0  0  0  0  0  0  0  0  0  0  0
   11.6983    7.0423   34.9571 H   0  0  0  0  0  0  0  0  0  0  0  0
    9.4325    8.1263   35.6245 H   0  0  0  0  0  0  0  0  0  0  0  0
  1  2  1  0  0  0  0
  2  3  2  0  0  0  0
  2  4  1  0  0  0  0
  4  5  1  0  0  0  0
  4  6  1  0  0  0  0
  4 17  1  1  0  0  0
  5 18  1  0  0  0  0
  6  7  1  0  0  0  0
  6 19  1  0  0  0  0
  6 20  1  0  0  0  0
  7  8  1  0  0  0  0
  7 16  2  0  0  0  0
  8  9  2  0  0  0  0
  8 14  1  0  0  0  0
  9 10  1  0  0  0  0
  9 21  1  0  0  0  0
 10 11  2  0  0  0  0
 10 22  1  0  0  0  0
 11 12  1  0  0  0  0
 11 13  1  0  0  0  0
 13 14  2  0  0  0  0
 13 23  1  0  0  0  0
 14 15  1  0  0  0  0
 15 16  1  0  0  0  0
 15 24  1  0  0  0  0
 16 25  1  0  0  0  0
M  CHG  1   1  -1
M  END
