4wri_ligand
 OpenBabel08222323353D

124130  0  0  1  0  0  0  0  0999 V2000
   25.6640   50.7130   57.6940 C   0  0  0  0  0  0  0  0  0  0  0  0
   25.6820   51.4380   59.0610 C   0  0  2  0  0  0  0  0  0  0  0  0
   26.8620   52.4070   59.1180 C   0  0  0  0  0  0  0  0  0  0  0  0
   26.8430   53.4740   58.0010 C   0  0  2  0  0  0  0  0  0  0  0  0
   28.1110   54.3120   58.0850 C   0  0  0  0  0  0  0  0  0  0  0  0
   28.0310   55.5090   57.1350 C   0  0  0  0  0  0  0  0  0  0  0  0
   26.7220   56.2980   57.3790 C   0  0  2  0  0  0  0  0  0  0  0  0
   25.5470   55.3420   57.2640 C   0  0  2  0  0  0  0  0  0  0  0  0
   24.2740   56.0370   57.6540 C   0  0  0  0  0  0  0  0  0  0  0  0
   23.1670   55.9000   56.9020 C   0  0  0  0  0  0  0  0  0  0  0  0
   23.1370   55.1240   55.6230 C   0  0  0  0  0  0  0  0  0  0  0  0
   24.3820   54.1930   55.5810 C   0  0  1  0  0  0  0  0  0  0  0  0
   24.6130   53.6760   54.1520 C   0  0  1  0  0  0  0  0  0  0  0  0
   25.8250   52.7130   54.1600 C   0  0  0  0  0  0  0  0  0  0  0  0
   26.9260   53.0500   53.4870 C   0  0  0  0  0  0  0  0  0  0  0  0
   28.0890   52.1000   53.5580 C   0  0  1  0  0  0  0  0  0  0  0  0
   28.7090   51.6770   52.2000 C   0  0  0  0  0  0  0  0  0  0  0  0
   30.2270   51.6740   52.4570 C   0  0  0  0  0  0  0  0  0  0  0  0
   30.3480   52.1920   53.9270 C   0  0  1  0  0  0  0  0  0  0  0  0
   31.5630   52.9890   54.1570 C   0  0  0  0  0  0  0  0  0  0  0  0
   31.6030   53.4090   55.6510 C   0  0  0  0  0  0  0  0  0  0  0  0
   31.5500   52.1290   56.4810 C   0  0  2  0  0  0  0  0  0  0  0  0
   30.2770   51.3460   56.1190 C   0  0  2  0  0  0  0  0  0  0  0  0
   30.2500   50.0070   56.9280 C   0  0  1  0  0  0  0  0  0  0  0  0
   30.3830   50.4240   58.3750 C   0  0  0  0  0  0  0  0  0  0  0  0
   31.5000   51.3450   58.7140 C   0  0  1  0  0  0  0  0  0  0  0  0
   32.8610   50.6140   58.7140 C   0  0  2  0  0  0  0  0  0  0  0  0
   32.8760   49.6110   59.8780 C   0  0  0  0  0  0  0  0  0  0  0  0
   34.2340   48.9350   60.1280 C   0  0  1  0  0  0  0  0  0  0  0  0
   33.9930   47.8790   61.2480 C   0  0  2  0  0  0  0  0  0  0  0  0
   33.6410   48.4200   62.6130 C   0  0  1  0  0  0  0  0  0  0  0  0
   33.6030   47.3160   63.6700 C   0  0  0  0  0  0  0  0  0  0  0  0
   34.7730   46.3420   63.5930 C   0  0  0  0  0  0  0  0  0  0  0  0
   35.0620   45.9940   62.1240 C   0  0  2  0  0  0  0  0  0  0  0  0
   36.4520   45.2670   62.0850 C   0  0  0  0  0  0  0  0  0  0  0  0
   36.6160   44.6730   60.6910 C   0  0  0  0  0  0  0  0  0  0  0  0
   35.4450   43.7750   60.4130 C   0  0  0  0  0  0  0  0  0  0  0  0
   34.1250   44.4960   60.5060 C   0  0  0  0  0  0  0  0  0  0  0  0
   34.5780   49.5440   63.0550 C   0  0  0  0  0  0  0  0  0  0  0  0
   34.6760   48.1990   58.8550 C   0  0  0  0  0  0  0  0  0  0  0  0
   29.5750   50.0160   59.3150 C   0  0  0  0  0  0  0  0  0  0  0  0
   23.4160   52.8790   53.6680 C   0  0  0  0  0  0  0  0  0  0  0  0
   21.9410   56.6160   57.4010 C   0  0  0  0  0  0  0  0  0  0  0  0
   25.7740   50.4160   60.1850 C   0  0  0  0  0  0  0  0  0  0  0  0
   26.7150   50.1480   57.3880 O   0  5  0  0  0  0  0  0  0  0  0  0
   24.6410   50.7470   57.0050 O   0  0  0  0  0  0  0  0  0  0  0  0
   24.4720   52.1680   59.2200 O   0  0  0  0  0  0  0  0  0  0  0  0
   25.6840   54.2940   58.2050 O   0  0  0  0  0  0  0  0  0  0  0  0
   26.6450   57.3790   56.4140 O   0  0  0  0  0  0  0  0  0  0  0  0
   25.5130   54.8620   55.9200 O   0  0  0  0  0  0  0  0  0  0  0  0
   29.1180   52.8310   54.1540 O   0  0  0  0  0  0  0  0  0  0  0  0
   30.3330   50.9930   54.7460 O   0  0  0  0  0  0  0  0  0  0  0  0
   31.5460   52.5000   57.8620 O   0  0  0  0  0  0  0  0  0  0  0  0
   29.1010   49.3090   56.6350 O   0  0  0  0  0  0  0  0  0  0  0  0
   33.8710   51.5900   58.9150 O   0  0  0  0  0  0  0  0  0  0  0  0
   35.2190   47.0920   61.3150 O   0  0  0  0  0  0  0  0  0  0  0  0
   33.9990   45.1240   61.8310 O   0  0  0  0  0  0  0  0  0  0  0  0
   27.7924   51.8271   59.0286 H   0  0  0  0  0  0  0  0  0  0  0  0
   26.8425   52.9214   60.0901 H   0  0  0  0  0  0  0  0  0  0  0  0
   26.7881   52.9886   57.0154 H   0  0  0  0  0  0  0  0  0  0  0  0
   28.9747   53.6891   57.8093 H   0  0  0  0  0  0  0  0  0  0  0  0
   28.2357   54.6763   59.1154 H   0  0  0  0  0  0  0  0  0  0  0  0
   28.0504   55.1499   56.0955 H   0  0  0  0  0  0  0  0  0  0  0  0
   28.8921   56.1705   57.3106 H   0  0  0  0  0  0  0  0  0  0  0  0
   26.7337   56.7261   58.3922 H   0  0  0  0  0  0  0  0  0  0  0  0
   24.2469   56.6551   58.5502 H   0  0  0  0  0  0  0  0  0  0  0  0
   23.1624   55.8161   54.7684 H   0  0  0  0  0  0  0  0  0  0  0  0
   22.2196   54.5188   55.5776 H   0  0  0  0  0  0  0  0  0  0  0  0
   24.2239   53.3496   56.2692 H   0  0  0  0  0  0  0  0  0  0  0  0
   24.7999   54.5238   53.4765 H   0  0  0  0  0  0  0  0  0  0  0  0
   25.7792   51.7729   54.7078 H   0  0  0  0  0  0  0  0  0  0  0  0
   26.9802   53.9728   52.9113 H   0  0  0  0  0  0  0  0  0  0  0  0
   27.8094   51.2109   54.1422 H   0  0  0  0  0  0  0  0  0  0  0  0
   28.4491   52.3988   51.4117 H   0  0  0  0  0  0  0  0  0  0  0  0
   28.3615   50.6748   51.9087 H   0  0  0  0  0  0  0  0  0  0  0  0
   30.7456   52.3474   51.7587 H   0  0  0  0  0  0  0  0  0  0  0  0
   30.6400   50.6589   52.3624 H   0  0  0  0  0  0  0  0  0  0  0  0
   31.5443   53.8857   53.5202 H   0  0  0  0  0  0  0  0  0  0  0  0
   32.4521   52.3873   53.9171 H   0  0  0  0  0  0  0  0  0  0  0  0
   30.7384   54.0469   55.8865 H   0  0  0  0  0  0  0  0  0  0  0  0
   32.5323   53.9578   55.8635 H   0  0  0  0  0  0  0  0  0  0  0  0
   32.4325   51.5076   56.2689 H   0  0  0  0  0  0  0  0  0  0  0  0
   29.3823   51.9493   56.3324 H   0  0  0  0  0  0  0  0  0  0  0  0
   31.1115   49.3809   56.6528 H   0  0  0  0  0  0  0  0  0  0  0  0
   31.3201   51.7043   59.7380 H   0  0  0  0  0  0  0  0  0  0  0  0
   33.0189   50.0904   57.7596 H   0  0  0  0  0  0  0  0  0  0  0  0
   32.1370   48.8252   59.6624 H   0  0  0  0  0  0  0  0  0  0  0  0
   32.5859   50.1457   60.7945 H   0  0  0  0  0  0  0  0  0  0  0  0
   34.9921   49.6719   60.4318 H   0  0  0  0  0  0  0  0  0  0  0  0
   33.1624   47.2307   60.9321 H   0  0  0  0  0  0  0  0  0  0  0  0
   32.6289   48.8447   62.5412 H   0  0  0  0  0  0  0  0  0  0  0  0
   32.6704   46.7468   63.5421 H   0  0  0  0  0  0  0  0  0  0  0  0
   33.6111   47.7881   64.6635 H   0  0  0  0  0  0  0  0  0  0  0  0
   34.5210   45.4236   64.1435 H   0  0  0  0  0  0  0  0  0  0  0  0
   35.6644   46.8052   64.0411 H   0  0  0  0  0  0  0  0  0  0  0  0
   36.4796   44.4676   62.8400 H   0  0  0  0  0  0  0  0  0  0  0  0
   37.2590   45.9875   62.2841 H   0  0  0  0  0  0  0  0  0  0  0  0
   37.5486   44.0916   60.6431 H   0  0  0  0  0  0  0  0  0  0  0  0
   36.6488   45.4809   59.9452 H   0  0  0  0  0  0  0  0  0  0  0  0
   35.4497   42.9536   61.1447 H   0  0  0  0  0  0  0  0  0  0  0  0
   35.5503   43.3630   59.3985 H   0  0  0  0  0  0  0  0  0  0  0  0
   33.3044   43.7779   60.3615 H   0  0  0  0  0  0  0  0  0  0  0  0
   34.0753   45.2711   59.7271 H   0  0  0  0  0  0  0  0  0  0  0  0
   34.5956   50.3304   62.2860 H   0  0  0  0  0  0  0  0  0  0  0  0
   35.5929   49.1427   63.1922 H   0  0  0  0  0  0  0  0  0  0  0  0
   34.2198   49.9679   64.0047 H   0  0  0  0  0  0  0  0  0  0  0  0
   34.8513   48.9294   58.0514 H   0  0  0  0  0  0  0  0  0  0  0  0
   33.8887   47.4957   58.5459 H   0  0  0  0  0  0  0  0  0  0  0  0
   35.6047   47.6447   59.0556 H   0  0  0  0  0  0  0  0  0  0  0  0
   28.7550   49.3414   59.0732 H   0  0  0  0  0  0  0  0  0  0  0  0
   29.7207   50.3501   60.3412 H   0  0  0  0  0  0  0  0  0  0  0  0
   23.6038   52.5200   52.6453 H   0  0  0  0  0  0  0  0  0  0  0  0
   22.5222   53.5202   53.6731 H   0  0  0  0  0  0  0  0  0  0  0  0
   23.2542   52.0190   54.3345 H   0  0  0  0  0  0  0  0  0  0  0  0
   22.1726   57.1218   58.3499 H   0  0  0  0  0  0  0  0  0  0  0  0
   21.1314   55.8888   57.5613 H   0  0  0  0  0  0  0  0  0  0  0  0
   21.6229   57.3608   56.6566 H   0  0  0  0  0  0  0  0  0  0  0  0
   24.9170   49.7288   60.1267 H   0  0  0  0  0  0  0  0  0  0  0  0
   25.7623   50.9353   61.1546 H   0  0  0  0  0  0  0  0  0  0  0  0
   26.7091   49.8452   60.0860 H   0  0  0  0  0  0  0  0  0  0  0  0
   24.3951   52.8074   58.5216 H   0  0  0  0  0  0  0  0  0  0  0  0
   27.3961   57.9510   56.5203 H   0  0  0  0  0  0  0  0  0  0  0  0
   28.3447   49.8471   56.8373 H   0  0  0  0  0  0  0  0  0  0  0  0
   34.7189   51.1632   58.9542 H   0  0  0  0  0  0  0  0  0  0  0  0
  1 45  1  0  0  0  0
  1 46  2  0  0  0  0
  2  1  1  6  0  0  0
  2  3  1  0  0  0  0
  2 44  1  0  0  0  0
  2 47  1  0  0  0  0
  3  4  1  0  0  0  0
  3 58  1  0  0  0  0
  3 59  1  0  0  0  0
  4  5  1  0  0  0  0
  4 48  1  0  0  0  0
  4 60  1  6  0  0  0
  5  6  1  0  0  0  0
  5 61  1  0  0  0  0
  5 62  1  0  0  0  0
  6  7  1  0  0  0  0
  6 63  1  0  0  0  0
  6 64  1  0  0  0  0
  7  8  1  0  0  0  0
  7 49  1  0  0  0  0
  7 65  1  1  0  0  0
  8  9  1  1  0  0  0
  8 48  1  0  0  0  0
  8 50  1  0  0  0  0
  9 10  2  0  0  0  0
  9 66  1  0  0  0  0
 10 11  1  0  0  0  0
 10 43  1  0  0  0  0
 11 12  1  0  0  0  0
 11 67  1  0  0  0  0
 11 68  1  0  0  0  0
 12 13  1  0  0  0  0
 12 50  1  0  0  0  0
 12 69  1  1  0  0  0
 13 14  1  0  0  0  0
 13 42  1  0  0  0  0
 13 70  1  6  0  0  0
 14 15  2  0  0  0  0
 14 71  1  0  0  0  0
 15 16  1  0  0  0  0
 15 72  1  0  0  0  0
 16 17  1  0  0  0  0
 16 51  1  0  0  0  0
 16 73  1  1  0  0  0
 17 18  1  0  0  0  0
 17 74  1  0  0  0  0
 17 75  1  0  0  0  0
 18 19  1  0  0  0  0
 18 76  1  0  0  0  0
 18 77  1  0  0  0  0
 19 20  1  0  0  0  0
 19 51  1  1  0  0  0
 19 52  1  0  0  0  0
 20 21  1  0  0  0  0
 20 78  1  0  0  0  0
 20 79  1  0  0  0  0
 21 22  1  0  0  0  0
 21 80  1  0  0  0  0
 21 81  1  0  0  0  0
 22 23  1  0  0  0  0
 22 53  1  0  0  0  0
 22 82  1  6  0  0  0
 23 24  1  0  0  0  0
 23 52  1  0  0  0  0
 23 83  1  1  0  0  0
 24 25  1  0  0  0  0
 24 54  1  0  0  0  0
 24 84  1  6  0  0  0
 25 26  1  0  0  0  0
 25 41  2  0  0  0  0
 26 27  1  0  0  0  0
 26 53  1  0  0  0  0
 26 85  1  1  0  0  0
 27 28  1  0  0  0  0
 27 55  1  0  0  0  0
 27 86  1  6  0  0  0
 28 29  1  0  0  0  0
 28 87  1  0  0  0  0
 28 88  1  0  0  0  0
 29 30  1  0  0  0  0
 29 40  1  0  0  0  0
 29 89  1  1  0  0  0
 30 31  1  0  0  0  0
 30 56  1  0  0  0  0
 30 90  1  6  0  0  0
 31 32  1  0  0  0  0
 31 39  1  0  0  0  0
 31 91  1  6  0  0  0
 32 33  1  0  0  0  0
 32 92  1  0  0  0  0
 32 93  1  0  0  0  0
 33 34  1  0  0  0  0
 33 94  1  0  0  0  0
 33 95  1  0  0  0  0
 34 35  1  0  0  0  0
 34 56  1  6  0  0  0
 34 57  1  0  0  0  0
 35 36  1  0  0  0  0
 35 96  1  0  0  0  0
 35 97  1  0  0  0  0
 36 37  1  0  0  0  0
 36 98  1  0  0  0  0
 36 99  1  0  0  0  0
 37 38  1  0  0  0  0
 37100  1  0  0  0  0
 37101  1  0  0  0  0
 38 57  1  0  0  0  0
 38102  1  0  0  0  0
 38103  1  0  0  0  0
 39104  1  0  0  0  0
 39105  1  0  0  0  0
 39106  1  0  0  0  0
 40107  1  0  0  0  0
 40108  1  0  0  0  0
 40109  1  0  0  0  0
 41110  1  0  0  0  0
 41111  1  0  0  0  0
 42112  1  0  0  0  0
 42113  1  0  0  0  0
 42114  1  0  0  0  0
 43115  1  0  0  0  0
 43116  1  0  0  0  0
 43117  1  0  0  0  0
 44118  1  0  0  0  0
 44119  1  0  0  0  0
 44120  1  0  0  0  0
 47121  1  0  0  0  0
 49122  1  0  0  0  0
 54123  1  0  0  0  0
 55124  1  0  0  0  0
M  CHG  1  45  -1
M  END
