4wrs_ligand
 OpenBabel08222323353D

 54 59  0  0  1  0  0  0  0  0999 V2000
  -43.8530   -3.0580    3.6160 F   0  0  0  0  0  0  0  0  0  0  0  0
  -44.7770   -2.1080    3.8020 C   0  0  0  0  0  0  0  0  0  0  0  0
  -45.3310   -1.9690    5.0790 C   0  0  0  0  0  0  0  0  0  0  0  0
  -46.2970   -0.9910    5.3290 C   0  0  0  0  0  0  0  0  0  0  0  0
  -46.7040   -0.1480    4.2940 C   0  0  0  0  0  0  0  0  0  0  0  0
  -46.1460   -0.2870    3.0140 C   0  0  0  0  0  0  0  0  0  0  0  0
  -46.5690    0.5500    2.0510 F   0  0  0  0  0  0  0  0  0  0  0  0
  -45.1650   -1.2690    2.7440 C   0  0  0  0  0  0  0  0  0  0  0  0
  -44.6070   -1.4140    1.4360 C   0  0  0  0  0  0  0  0  0  0  0  0
  -45.4620   -1.2800    0.3160 C   0  0  0  0  0  0  0  0  0  0  0  0
  -44.9770   -1.4110   -0.9870 C   0  0  0  0  0  0  0  0  0  0  0  0
  -43.6070   -1.6910   -1.2140 C   0  0  0  0  0  0  0  0  0  0  0  0
  -42.9020   -1.8840   -2.3830 N   0  0  0  0  0  0  0  0  0  0  0  0
  -41.6170   -2.1350   -2.0720 N   0  0  0  0  0  0  0  0  0  0  0  0
  -41.4510   -2.1140   -0.7330 C   0  0  0  0  0  0  0  0  0  0  0  0
  -40.2290   -2.3730   -0.0950 C   0  0  0  0  0  0  0  0  0  0  0  0
  -39.0620   -2.5400   -0.8510 C   0  0  0  0  0  0  0  0  0  0  0  0
  -37.8750   -2.8160   -0.2610 N   0  0  0  0  0  0  0  0  0  0  0  0
  -37.8300   -2.9490    1.0840 C   0  0  0  0  0  0  0  0  0  0  0  0
  -38.9900   -2.8030    1.8510 C   0  0  0  0  0  0  0  0  0  0  0  0
  -38.8870   -2.9680    3.2700 O   0  0  0  0  0  0  0  0  0  0  0  0
  -40.1210   -2.8120    4.0130 C   0  0  1  0  0  0  0  0  0  0  0  0
  -40.7270   -4.1680    4.4150 C   0  0  0  0  0  0  0  0  0  0  0  0
  -40.0290   -4.8600    5.5260 N   0  3  0  0  0  0  0  0  0  0  0  0
  -39.6590   -3.9700    6.6510 C   0  0  0  0  0  0  0  0  0  0  0  0
  -38.9260   -2.7230    6.1530 C   0  0  0  0  0  0  0  0  0  0  0  0
  -39.7680   -1.9830    5.1820 C   0  0  0  0  0  0  0  0  0  0  0  0
  -40.7510   -1.0140    5.8170 C   0  0  0  0  0  0  0  0  0  0  0  0
  -39.4650   -0.4940    5.1960 C   0  0  0  0  0  0  0  0  0  0  0  0
  -40.1720   -2.5220    1.2470 N   0  0  0  0  0  0  0  0  0  0  0  0
  -42.7390   -1.8390   -0.1520 C   0  0  0  0  0  0  0  0  0  0  0  0
  -43.2350   -1.6980    1.1950 C   0  0  0  0  0  0  0  0  0  0  0  0
  -45.0087   -2.6245    5.8799 H   0  0  0  0  0  0  0  0  0  0  0  0
  -46.7268   -0.8879    6.3188 H   0  0  0  0  0  0  0  0  0  0  0  0
  -47.4517    0.6147    4.4790 H   0  0  0  0  0  0  0  0  0  0  0  0
  -46.5142   -1.0716    0.4728 H   0  0  0  0  0  0  0  0  0  0  0  0
  -45.6515   -1.2980   -1.8280 H   0  0  0  0  0  0  0  0  0  0  0  0
  -43.2933   -1.8429   -3.3349 H   0  0  0  0  0  0  0  0  0  0  0  0
  -39.1100   -2.4464   -1.9299 H   0  0  0  0  0  0  0  0  0  0  0  0
  -36.8874   -3.1705    1.5713 H   0  0  0  0  0  0  0  0  0  0  0  0
  -40.8576   -2.2780    3.3947 H   0  0  0  0  0  0  0  0  0  0  0  0
  -40.7043   -4.8268    3.5344 H   0  0  0  0  0  0  0  0  0  0  0  0
  -41.7703   -3.9990    4.7198 H   0  0  0  0  0  0  0  0  0  0  0  0
  -39.1868   -5.2765    5.1609 H   0  0  0  0  0  0  0  0  0  0  0  0
  -40.6354   -5.5832    5.8800 H   0  0  0  0  0  0  0  0  0  0  0  0
  -39.0030   -4.5194    7.3422 H   0  0  0  0  0  0  0  0  0  0  0  0
  -40.5729   -3.6615    7.1798 H   0  0  0  0  0  0  0  0  0  0  0  0
  -37.9882   -3.0247    5.6637 H   0  0  0  0  0  0  0  0  0  0  0  0
  -38.6995   -2.0696    7.0084 H   0  0  0  0  0  0  0  0  0  0  0  0
  -40.8799   -0.9982    6.9093 H   0  0  0  0  0  0  0  0  0  0  0  0
  -41.7170   -0.8130    5.3308 H   0  0  0  0  0  0  0  0  0  0  0  0
  -39.5003    0.0833    4.2603 H   0  0  0  0  0  0  0  0  0  0  0  0
  -38.6631   -0.1019    5.8388 H   0  0  0  0  0  0  0  0  0  0  0  0
  -42.5550   -1.8097    2.0318 H   0  0  0  0  0  0  0  0  0  0  0  0
  1  2  1  0  0  0  0
  2  3  2  0  0  0  0
  2  8  1  0  0  0  0
  3  4  1  0  0  0  0
  3 33  1  0  0  0  0
  4  5  2  0  0  0  0
  4 34  1  0  0  0  0
  5  6  1  0  0  0  0
  5 35  1  0  0  0  0
  6  7  1  0  0  0  0
  6  8  2  0  0  0  0
  8  9  1  0  0  0  0
  9 10  2  0  0  0  0
  9 32  1  0  0  0  0
 10 11  1  0  0  0  0
 10 36  1  0  0  0  0
 11 12  2  0  0  0  0
 11 37  1  0  0  0  0
 12 13  1  0  0  0  0
 12 31  1  0  0  0  0
 13 14  1  0  0  0  0
 13 38  1  0  0  0  0
 14 15  2  0  0  0  0
 15 16  1  0  0  0  0
 15 31  1  0  0  0  0
 16 17  2  0  0  0  0
 16 30  1  0  0  0  0
 17 18  1  0  0  0  0
 17 39  1  0  0  0  0
 18 19  2  0  0  0  0
 19 20  1  0  0  0  0
 19 40  1  0  0  0  0
 20 21  1  0  0  0  0
 20 30  2  0  0  0  0
 21 22  1  0  0  0  0
 22 23  1  0  0  0  0
 22 27  1  0  0  0  0
 22 41  1  6  0  0  0
 23 24  1  0  0  0  0
 23 42  1  0  0  0  0
 23 43  1  0  0  0  0
 24 25  1  0  0  0  0
 24 44  1  0  0  0  0
 24 45  1  0  0  0  0
 25 26  1  0  0  0  0
 25 46  1  0  0  0  0
 25 47  1  0  0  0  0
 26 27  1  0  0  0  0
 26 48  1  0  0  0  0
 26 49  1  0  0  0  0
 27 28  1  0  0  0  0
 27 29  1  0  0  0  0
 28 29  1  0  0  0  0
 28 50  1  0  0  0  0
 28 51  1  0  0  0  0
 29 52  1  0  0  0  0
 29 53  1  0  0  0  0
 31 32  2  0  0  0  0
 32 54  1  0  0  0  0
M  CHG  1  24   1
M  END
