4wt6_ligand
 OpenBabel08222323353D

 47 51  0  0  0  0  0  0  0  0999 V2000
  -40.3810   -2.8630    5.3650 C   0  0  0  0  0  0  0  0  0  0  0  0
  -39.0650   -2.1620    5.1070 C   0  0  0  0  0  0  0  0  0  0  0  0
  -39.5230   -0.7400    4.8090 C   0  0  0  0  0  0  0  0  0  0  0  0
  -40.7430   -0.9380    3.9050 C   0  0  0  0  0  0  0  0  0  0  0  0
  -41.3200   -2.3100    4.2850 C   0  0  0  0  0  0  0  0  0  0  0  0
  -42.6930   -2.1790    4.8470 N   0  0  0  0  0  0  0  0  0  0  0  0
  -43.7630   -1.9090    4.1030 C   0  0  0  0  0  0  0  0  0  0  0  0
  -43.6450   -1.8760    2.7670 N   0  0  0  0  0  0  0  0  0  0  0  0
  -44.9790   -1.6420    4.7170 C   0  0  0  0  0  0  0  0  0  0  0  0
  -46.0780   -1.3380    3.9160 C   0  0  0  0  0  0  0  0  0  0  0  0
  -45.9320   -1.3190    2.5330 C   0  0  0  0  0  0  0  0  0  0  0  0
  -44.6830   -1.5860    1.9630 C   0  0  0  0  0  0  0  0  0  0  0  0
  -44.5180   -1.5960    0.5700 C   0  0  0  0  0  0  0  0  0  0  0  0
  -43.3230   -1.8900   -0.0820 C   0  0  0  0  0  0  0  0  0  0  0  0
  -42.0310   -2.1910    0.3510 C   0  0  0  0  0  0  0  0  0  0  0  0
  -45.4470   -1.3900   -0.3670 C   0  0  0  0  0  0  0  0  0  0  0  0
  -44.8910   -1.5240   -1.5780 N   0  0  0  0  0  0  0  0  0  0  0  0
  -43.6080   -1.8220   -1.4410 C   0  0  0  0  0  0  0  0  0  0  0  0
  -42.6270   -2.0570   -2.3800 C   0  0  0  0  0  0  0  0  0  0  0  0
  -41.3370   -2.3560   -1.9570 C   0  0  0  0  0  0  0  0  0  0  0  0
  -41.0270   -2.4150   -0.5930 C   0  0  0  0  0  0  0  0  0  0  0  0
  -39.7320   -2.7500   -0.2310 C   0  0  0  0  0  0  0  0  0  0  0  0
  -39.1900   -3.0270    1.3760 S   0  0  0  0  0  0  0  0  0  0  0  0
  -38.6960   -2.9980   -1.0630 N   0  0  0  0  0  0  0  0  0  0  0  0
  -37.6240   -3.3130   -0.5060 N   0  0  0  0  0  0  0  0  0  0  0  0
  -37.6820   -3.3820    0.8350 C   0  0  0  0  0  0  0  0  0  0  0  0
  -36.6990   -3.7140    1.6420 N   0  0  0  0  0  0  0  0  0  0  0  0
  -40.7594   -2.6249    6.3700 H   0  0  0  0  0  0  0  0  0  0  0  0
  -40.2690   -3.9526    5.2639 H   0  0  0  0  0  0  0  0  0  0  0  0
  -38.5387   -2.6018    4.2470 H   0  0  0  0  0  0  0  0  0  0  0  0
  -38.4129   -2.1955    5.9923 H   0  0  0  0  0  0  0  0  0  0  0  0
  -38.7360   -0.1746    4.2886 H   0  0  0  0  0  0  0  0  0  0  0  0
  -39.8009   -0.2146    5.7346 H   0  0  0  0  0  0  0  0  0  0  0  0
  -40.4427   -0.9275    2.8469 H   0  0  0  0  0  0  0  0  0  0  0  0
  -41.4856   -0.1464    4.0833 H   0  0  0  0  0  0  0  0  0  0  0  0
  -41.3409   -2.9738    3.4081 H   0  0  0  0  0  0  0  0  0  0  0  0
  -42.8208   -2.3035    5.8614 H   0  0  0  0  0  0  0  0  0  0  0  0
  -45.0717   -1.6694    5.7967 H   0  0  0  0  0  0  0  0  0  0  0  0
  -47.0388   -1.1181    4.3671 H   0  0  0  0  0  0  0  0  0  0  0  0
  -46.7832   -1.0981    1.8991 H   0  0  0  0  0  0  0  0  0  0  0  0
  -41.8090   -2.2503    1.4104 H   0  0  0  0  0  0  0  0  0  0  0  0
  -46.4921   -1.1507   -0.1764 H   0  0  0  0  0  0  0  0  0  0  0  0
  -45.3841   -1.4127   -2.4754 H   0  0  0  0  0  0  0  0  0  0  0  0
  -42.8590   -2.0092   -3.4378 H   0  0  0  0  0  0  0  0  0  0  0  0
  -40.5625   -2.5456   -2.6914 H   0  0  0  0  0  0  0  0  0  0  0  0
  -35.7677   -3.9289    1.2580 H   0  0  0  0  0  0  0  0  0  0  0  0
  -36.8600   -3.7592    2.6583 H   0  0  0  0  0  0  0  0  0  0  0  0
  1  2  1  0  0  0  0
  1  5  1  0  0  0  0
  1 28  1  0  0  0  0
  1 29  1  0  0  0  0
  2  3  1  0  0  0  0
  2 30  1  0  0  0  0
  2 31  1  0  0  0  0
  3  4  1  0  0  0  0
  3 32  1  0  0  0  0
  3 33  1  0  0  0  0
  4  5  1  0  0  0  0
  4 34  1  0  0  0  0
  4 35  1  0  0  0  0
  5  6  1  0  0  0  0
  5 36  1  0  0  0  0
  6  7  1  0  0  0  0
  6 37  1  0  0  0  0
  7  8  2  0  0  0  0
  7  9  1  0  0  0  0
  8 12  1  0  0  0  0
  9 10  2  0  0  0  0
  9 38  1  0  0  0  0
 10 11  1  0  0  0  0
 10 39  1  0  0  0  0
 11 12  2  0  0  0  0
 11 40  1  0  0  0  0
 12 13  1  0  0  0  0
 13 14  1  0  0  0  0
 13 16  2  0  0  0  0
 14 15  2  0  0  0  0
 14 18  1  0  0  0  0
 15 21  1  0  0  0  0
 15 41  1  0  0  0  0
 16 17  1  0  0  0  0
 16 42  1  0  0  0  0
 17 18  1  0  0  0  0
 17 43  1  0  0  0  0
 18 19  2  0  0  0  0
 19 20  1  0  0  0  0
 19 44  1  0  0  0  0
 20 21  2  0  0  0  0
 20 45  1  0  0  0  0
 21 22  1  0  0  0  0
 22 23  1  0  0  0  0
 22 24  2  0  0  0  0
 23 26  1  0  0  0  0
 24 25  1  0  0  0  0
 25 26  2  0  0  0  0
 26 27  1  0  0  0  0
 27 46  1  0  0  0  0
 27 47  1  0  0  0  0
M  END
