4wtu_ligand
 OpenBabel08222323353D

 50 55  0  0  1  0  0  0  0  0999 V2000
   64.3540   50.7710   10.8120 C   0  0  0  0  0  0  0  0  0  0  0  0
   62.9870   50.9820   11.2720 O   0  0  0  0  0  0  0  0  0  0  0  0
   62.7420   52.3590   11.6420 C   0  0  0  0  0  0  0  0  0  0  0  0
   63.7990   52.8740   12.6120 C   0  0  0  0  0  0  0  0  0  0  0  0
   65.0750   52.6430   12.1150 C   0  0  0  0  0  0  0  0  0  0  0  0
   65.3990   51.6060   11.2300 C   0  0  0  0  0  0  0  0  0  0  0  0
   66.7290   51.4210   10.7950 C   0  0  0  0  0  0  0  0  0  0  0  0
   67.1290   50.4110    9.9070 C   0  0  0  0  0  0  0  0  0  0  0  0
   67.6740   52.2640   11.2430 N   0  0  0  0  0  0  0  0  0  0  0  0
   68.9610   52.1610   10.8820 C   0  0  0  0  0  0  0  0  0  0  0  0
   69.8520   53.0410   11.3620 F   0  0  0  0  0  0  0  0  0  0  0  0
   69.4020   51.1820   10.0210 C   0  0  0  0  0  0  0  0  0  0  0  0
   70.7380   51.1510    9.7370 O   0  0  0  0  0  0  0  0  0  0  0  0
   68.4690   50.2820    9.5180 C   0  0  0  0  0  0  0  0  0  0  0  0
   68.8900   49.1960    8.5240 C   0  0  1  0  0  0  0  0  0  0  0  0
   68.5090   47.8080    8.9580 C   0  0  0  0  0  0  0  0  0  0  0  0
   67.4720   47.3620    8.0120 O   0  0  0  0  0  0  0  0  0  0  0  0
   67.2670   48.3400    7.0880 C   0  0  2  0  0  3  0  0  0  0  0  0
   68.0360   49.4040    7.2970 N   0  0  0  0  0  0  0  0  0  0  0  0
   66.3520   48.2230    6.1120 N   0  0  0  0  0  0  0  0  0  0  0  0
   70.3830   49.3110    8.1750 C   0  0  0  0  0  0  0  0  0  0  0  0
   70.9330   48.4570    7.2150 C   0  0  0  0  0  0  0  0  0  0  0  0
   71.2060   50.2570    8.8130 C   0  0  0  0  0  0  0  0  0  0  0  0
   72.5490   50.3310    8.4680 C   0  0  0  0  0  0  0  0  0  0  0  0
   73.0950   49.4670    7.5130 C   0  0  0  0  0  0  0  0  0  0  0  0
   72.2960   48.5180    6.8860 C   0  0  0  0  0  0  0  0  0  0  0  0
   72.8180   47.6420    5.9230 C   0  0  0  0  0  0  0  0  0  0  0  0
   73.8430   46.7590    6.2480 C   0  0  0  0  0  0  0  0  0  0  0  0
   74.3110   45.8870    5.2610 C   0  0  0  0  0  0  0  0  0  0  0  0
   73.7670   45.9140    3.9760 C   0  0  0  0  0  0  0  0  0  0  0  0
   72.7910   46.7540    3.6850 N   0  0  0  0  0  0  0  0  0  0  0  0
   72.3150   47.6050    4.6080 C   0  0  0  0  0  0  0  0  0  0  0  0
   71.3420   48.4400    4.2270 F   0  0  0  0  0  0  0  0  0  0  0  0
   64.5673   49.9488   10.1305 H   0  0  0  0  0  0  0  0  0  0  0  0
   61.7537   52.4302   12.1197 H   0  0  0  0  0  0  0  0  0  0  0  0
   62.7564   52.9808   10.7347 H   0  0  0  0  0  0  0  0  0  0  0  0
   63.5832   53.3568   13.5640 H   0  0  0  0  0  0  0  0  0  0  0  0
   65.8747   53.3102   12.4333 H   0  0  0  0  0  0  0  0  0  0  0  0
   66.3906   49.7203    9.5161 H   0  0  0  0  0  0  0  0  0  0  0  0
   68.1111   47.8230    9.9834 H   0  0  0  0  0  0  0  0  0  0  0  0
   69.3814   47.1396    8.9130 H   0  0  0  0  0  0  0  0  0  0  0  0
   68.0474   50.2482    6.7070 H   0  0  0  0  0  0  0  0  0  0  0  0
   66.2256   48.9850    5.4306 H   0  0  0  0  0  0  0  0  0  0  0  0
   65.7767   47.3713    6.0448 H   0  0  0  0  0  0  0  0  0  0  0  0
   70.2962   47.7354    6.7162 H   0  0  0  0  0  0  0  0  0  0  0  0
   73.1834   51.0689    8.9456 H   0  0  0  0  0  0  0  0  0  0  0  0
   74.1468   49.5379    7.2605 H   0  0  0  0  0  0  0  0  0  0  0  0
   74.2692   46.7476    7.2446 H   0  0  0  0  0  0  0  0  0  0  0  0
   75.1025   45.1844    5.4954 H   0  0  0  0  0  0  0  0  0  0  0  0
   74.1472   45.2429    3.2143 H   0  0  0  0  0  0  0  0  0  0  0  0
  1  2  1  0  0  0  0
  1  6  2  0  0  0  0
  1 34  1  0  0  0  0
  2  3  1  0  0  0  0
  3  4  1  0  0  0  0
  3 35  1  0  0  0  0
  3 36  1  0  0  0  0
  4  5  2  0  0  0  0
  4 37  1  0  0  0  0
  5  6  1  0  0  0  0
  5 38  1  0  0  0  0
  6  7  1  0  0  0  0
  7  8  2  0  0  0  0
  7  9  1  0  0  0  0
  8 14  1  0  0  0  0
  8 39  1  0  0  0  0
  9 10  2  0  0  0  0
 10 11  1  0  0  0  0
 10 12  1  0  0  0  0
 12 13  1  0  0  0  0
 12 14  2  0  0  0  0
 13 23  1  0  0  0  0
 15 14  1  1  0  0  0
 15 16  1  0  0  0  0
 15 19  1  0  0  0  0
 15 21  1  0  0  0  0
 16 17  1  0  0  0  0
 16 40  1  0  0  0  0
 16 41  1  0  0  0  0
 17 18  1  0  0  0  0
 18 19  1  0  0  0  0
 18 20  1  1  0  0  0
 19 42  1  0  0  0  0
 20 43  1  0  0  0  0
 20 44  1  0  0  0  0
 21 22  2  0  0  0  0
 21 23  1  0  0  0  0
 22 26  1  0  0  0  0
 22 45  1  0  0  0  0
 23 24  2  0  0  0  0
 24 25  1  0  0  0  0
 24 46  1  0  0  0  0
 25 26  2  0  0  0  0
 25 47  1  0  0  0  0
 26 27  1  0  0  0  0
 27 28  2  0  0  0  0
 27 32  1  0  0  0  0
 28 29  1  0  0  0  0
 28 48  1  0  0  0  0
 29 30  2  0  0  0  0
 29 49  1  0  0  0  0
 30 31  1  0  0  0  0
 30 50  1  0  0  0  0
 31 32  2  0  0  0  0
 32 33  1  0  0  0  0
M  END
