4wwo_ligand
 OpenBabel08222323353D

 46 50  0  0  1  0  0  0  0  0999 V2000
   22.0970   13.4740   23.3830 C   0  0  0  0  0  0  0  0  0  0  0  0
   23.3550   13.0490   23.4860 N   0  0  0  0  0  0  0  0  0  0  0  0
   23.3340   11.8200   23.9920 C   0  0  0  0  0  0  0  0  0  0  0  0
   22.0740   11.4570   24.2200 N   0  0  0  0  0  0  0  0  0  0  0  0
   21.2890   12.4530   23.8540 C   0  0  0  0  0  0  0  0  0  0  0  0
   19.9640   12.6060   23.8690 N   0  0  0  0  0  0  0  0  0  0  0  0
   19.4280   13.7410   23.4290 C   0  0  0  0  0  0  0  0  0  0  0  0
   20.1740   14.7500   22.9590 N   0  0  0  0  0  0  0  0  0  0  0  0
   21.5100   14.6640   22.9160 C   0  0  0  0  0  0  0  0  0  0  0  0
   22.2640   15.6860   22.4560 N   0  0  0  0  0  0  0  0  0  0  0  0
   21.7420   16.9840   21.9430 C   0  0  1  0  0  0  0  0  0  0  0  0
   22.8810   18.0090   21.9040 C   0  0  0  0  0  0  0  0  0  0  0  0
   21.1910   16.8720   20.5070 C   0  0  0  0  0  0  0  0  0  0  0  0
   21.7230   15.9510   19.6090 C   0  0  0  0  0  0  0  0  0  0  0  0
   21.1820   15.8870   18.3190 C   0  0  0  0  0  0  0  0  0  0  0  0
   21.6850   14.9740   17.4040 C   0  0  0  0  0  0  0  0  0  0  0  0
   21.1520   14.8950   16.1240 C   0  0  0  0  0  0  0  0  0  0  0  0
   20.1190   15.7450   15.7470 C   0  0  0  0  0  0  0  0  0  0  0  0
   19.6050   16.6730   16.6460 C   0  0  0  0  0  0  0  0  0  0  0  0
   18.3150   17.7190   16.1170 Cl  0  0  0  0  0  0  0  0  0  0  0  0
   20.1420   16.7430   17.9370 C   0  0  0  0  0  0  0  0  0  0  0  0
   19.6560   17.6190   18.8220 N   0  0  0  0  0  0  0  0  0  0  0  0
   20.1590   17.7190   20.0580 C   0  0  0  0  0  0  0  0  0  0  0  0
   19.5530   18.6480   20.8830 C   0  0  0  0  0  0  0  0  0  0  0  0
   18.4440   18.1980   21.5770 C   0  0  0  0  0  0  0  0  0  0  0  0
   17.7590   19.0510   22.4220 C   0  0  0  0  0  0  0  0  0  0  0  0
   16.6880   18.5680   23.0770 F   0  0  0  0  0  0  0  0  0  0  0  0
   18.1800   20.3730   22.5780 C   0  0  0  0  0  0  0  0  0  0  0  0
   19.2950   20.8260   21.8730 C   0  0  0  0  0  0  0  0  0  0  0  0
   19.9870   19.9600   21.0190 C   0  0  0  0  0  0  0  0  0  0  0  0
   24.1968   13.5797   23.2201 H   0  0  0  0  0  0  0  0  0  0  0  0
   24.2113   11.2057   24.1893 H   0  0  0  0  0  0  0  0  0  0  0  0
   18.3501   13.8537   23.4514 H   0  0  0  0  0  0  0  0  0  0  0  0
   23.2859   15.5572   22.4602 H   0  0  0  0  0  0  0  0  0  0  0  0
   20.9433   17.3354   22.6128 H   0  0  0  0  0  0  0  0  0  0  0  0
   22.4982   18.9683   21.5256 H   0  0  0  0  0  0  0  0  0  0  0  0
   23.6791   17.6452   21.2402 H   0  0  0  0  0  0  0  0  0  0  0  0
   23.2831   18.1492   22.9182 H   0  0  0  0  0  0  0  0  0  0  0  0
   22.5375   15.2982   19.9016 H   0  0  0  0  0  0  0  0  0  0  0  0
   22.4993   14.3180   17.6898 H   0  0  0  0  0  0  0  0  0  0  0  0
   21.5418   14.1701   15.4186 H   0  0  0  0  0  0  0  0  0  0  0  0
   19.7109   15.6841   14.7446 H   0  0  0  0  0  0  0  0  0  0  0  0
   18.1112   17.1733   21.4578 H   0  0  0  0  0  0  0  0  0  0  0  0
   17.6445   21.0421   23.2418 H   0  0  0  0  0  0  0  0  0  0  0  0
   19.6264   21.8518   21.9870 H   0  0  0  0  0  0  0  0  0  0  0  0
   20.8532   20.3099   20.4691 H   0  0  0  0  0  0  0  0  0  0  0  0
  1  2  1  0  0  0  0
  1  5  2  0  0  0  0
  1  9  1  0  0  0  0
  2  3  1  0  0  0  0
  2 31  1  0  0  0  0
  3  4  2  0  0  0  0
  3 32  1  0  0  0  0
  4  5  1  0  0  0  0
  5  6  1  0  0  0  0
  6  7  2  0  0  0  0
  7  8  1  0  0  0  0
  7 33  1  0  0  0  0
  8  9  2  0  0  0  0
  9 10  1  0  0  0  0
 10 11  1  0  0  0  0
 10 34  1  0  0  0  0
 11 12  1  0  0  0  0
 11 13  1  0  0  0  0
 11 35  1  1  0  0  0
 12 36  1  0  0  0  0
 12 37  1  0  0  0  0
 12 38  1  0  0  0  0
 13 14  2  0  0  0  0
 13 23  1  0  0  0  0
 14 15  1  0  0  0  0
 14 39  1  0  0  0  0
 15 16  2  0  0  0  0
 15 21  1  0  0  0  0
 16 17  1  0  0  0  0
 16 40  1  0  0  0  0
 17 18  2  0  0  0  0
 17 41  1  0  0  0  0
 18 19  1  0  0  0  0
 18 42  1  0  0  0  0
 19 20  1  0  0  0  0
 19 21  2  0  0  0  0
 21 22  1  0  0  0  0
 22 23  2  0  0  0  0
 23 24  1  0  0  0  0
 24 25  2  0  0  0  0
 24 30  1  0  0  0  0
 25 26  1  0  0  0  0
 25 43  1  0  0  0  0
 26 27  1  0  0  0  0
 26 28  2  0  0  0  0
 28 29  1  0  0  0  0
 28 44  1  0  0  0  0
 29 30  2  0  0  0  0
 29 45  1  0  0  0  0
 30 46  1  0  0  0  0
M  END
