4wxi_ligand
 OpenBabel08222323353D

 68 72  0  0  1  0  0  0  0  0999 V2000
   44.6710  -21.0240   29.9870 C   0  0  0  0  0  0  0  0  0  0  0  0
   48.0600  -21.7420   32.3490 C   0  0  0  0  0  0  0  0  0  0  0  0
   41.2770  -20.5920   28.4550 C   0  0  0  0  0  0  0  0  0  0  0  0
   46.9880  -20.8590   30.6150 C   0  0  0  0  0  0  0  0  0  0  0  0
   39.7930  -23.1480   28.7650 C   0  0  0  0  0  0  0  0  0  0  0  0
   38.9350  -18.3080   29.1450 C   0  0  0  0  0  0  0  0  0  0  0  0
   37.0570  -16.6750   29.5400 C   0  0  0  0  0  0  0  0  0  0  0  0
   38.8170  -16.1700   27.7430 C   0  0  0  0  0  0  0  0  0  0  0  0
   36.1690  -15.6170   28.8960 C   0  0  0  0  0  0  0  0  0  0  0  0
   37.9120  -15.0640   27.1730 C   0  0  0  0  0  0  0  0  0  0  0  0
   38.0460  -17.2550   28.5220 C   0  0  1  0  0  0  0  0  0  0  0  0
   42.8720  -20.3320   26.7800 C   0  0  0  0  0  0  0  0  0  0  0  0
   46.7740  -21.6190   31.7730 C   0  0  0  0  0  0  0  0  0  0  0  0
   36.0570  -13.4210   27.7670 C   0  0  0  0  0  0  0  0  0  0  0  0
   41.1530  -25.3760   29.7200 C   0  0  0  0  0  0  0  0  0  0  0  0
   41.1770  -25.0580   28.3560 C   0  0  0  0  0  0  0  0  0  0  0  0
   40.4590  -24.5740   30.6120 C   0  0  0  0  0  0  0  0  0  0  0  0
   45.4740  -22.1030   32.0520 C   0  0  0  0  0  0  0  0  0  0  0  0
   44.4390  -21.8040   31.1440 C   0  0  0  0  0  0  0  0  0  0  0  0
   40.5010  -23.9420   27.8650 C   0  0  0  0  0  0  0  0  0  0  0  0
   39.7900  -23.4480   30.1310 C   0  0  0  0  0  0  0  0  0  0  0  0
   43.9010  -20.5410   27.6910 C   0  0  0  0  0  0  0  0  0  0  0  0
   45.9570  -20.5280   29.7090 C   0  0  0  0  0  0  0  0  0  0  0  0
   42.2450  -20.8290   29.4320 C   0  0  0  0  0  0  0  0  0  0  0  0
   43.5890  -20.7700   29.0400 C   0  0  0  0  0  0  0  0  0  0  0  0
   37.0070  -14.4950   28.2670 C   0  0  1  0  0  0  0  0  0  0  0  0
   39.1080  -21.8990   28.2890 C   0  0  0  0  0  0  0  0  0  0  0  0
   39.8060  -20.6420   28.8440 C   0  0  2  0  0  0  0  0  0  0  0  0
   41.5630  -20.3640   27.1330 N   0  0  0  0  0  0  0  0  0  0  0  0
   48.9900  -21.0540   31.6710 N   0  0  0  0  0  0  0  0  0  0  0  0
   48.3270  -20.5490   30.6250 N   0  0  0  0  0  0  0  0  0  0  0  0
   48.2680  -22.4190   33.5130 N   0  0  0  0  0  0  0  0  0  0  0  0
   36.7440  -12.2190   27.4830 N   0  3  0  0  0  0  0  0  0  0  0  0
   39.0390  -19.4840   28.4300 N   0  0  0  0  0  0  0  0  0  0  0  0
   39.5010  -18.0990   30.2030 O   0  0  0  0  0  0  0  0  0  0  0  0
   36.4250  -17.4864   29.9302 H   0  0  0  0  0  0  0  0  0  0  0  0
   37.6192  -16.2178   30.3676 H   0  0  0  0  0  0  0  0  0  0  0  0
   39.5475  -15.7065   28.4223 H   0  0  0  0  0  0  0  0  0  0  0  0
   39.3468  -16.6513   26.9078 H   0  0  0  0  0  0  0  0  0  0  0  0
   35.5108  -15.1852   29.6643 H   0  0  0  0  0  0  0  0  0  0  0  0
   35.5578  -16.0899   28.1132 H   0  0  0  0  0  0  0  0  0  0  0  0
   37.2887  -15.4844   26.3700 H   0  0  0  0  0  0  0  0  0  0  0  0
   38.5391  -14.2571   26.7661 H   0  0  0  0  0  0  0  0  0  0  0  0
   37.4367  -17.7808   27.7722 H   0  0  0  0  0  0  0  0  0  0  0  0
   43.1264  -20.1353   25.7448 H   0  0  0  0  0  0  0  0  0  0  0  0
   35.2983  -13.2261   28.5392 H   0  0  0  0  0  0  0  0  0  0  0  0
   35.5642  -13.7771   26.8503 H   0  0  0  0  0  0  0  0  0  0  0  0
   41.6794  -26.2529   30.0792 H   0  0  0  0  0  0  0  0  0  0  0  0
   41.7303  -25.6901   27.6709 H   0  0  0  0  0  0  0  0  0  0  0  0
   40.4362  -24.8179   31.6680 H   0  0  0  0  0  0  0  0  0  0  0  0
   45.2791  -22.6895   32.9426 H   0  0  0  0  0  0  0  0  0  0  0  0
   43.4410  -22.1807   31.3367 H   0  0  0  0  0  0  0  0  0  0  0  0
   40.5255  -23.6979   26.8091 H   0  0  0  0  0  0  0  0  0  0  0  0
   39.2633  -22.8000   30.8222 H   0  0  0  0  0  0  0  0  0  0  0  0
   44.9340  -20.5272   27.3627 H   0  0  0  0  0  0  0  0  0  0  0  0
   46.1490  -19.9165   28.8348 H   0  0  0  0  0  0  0  0  0  0  0  0
   41.9674  -21.0505   30.4562 H   0  0  0  0  0  0  0  0  0  0  0  0
   37.6507  -14.0527   29.0417 H   0  0  0  0  0  0  0  0  0  0  0  0
   38.0621  -21.9099   28.6296 H   0  0  0  0  0  0  0  0  0  0  0  0
   39.1353  -21.8701   27.1897 H   0  0  0  0  0  0  0  0  0  0  0  0
   39.7690  -20.6887   29.9424 H   0  0  0  0  0  0  0  0  0  0  0  0
   49.9871  -20.9404   31.9028 H   0  0  0  0  0  0  0  0  0  0  0  0
   47.4892  -22.9208   33.9631 H   0  0  0  0  0  0  0  0  0  0  0  0
   49.2040  -22.4289   33.9428 H   0  0  0  0  0  0  0  0  0  0  0  0
   36.0888  -11.5272   27.1541 H   0  0  0  0  0  0  0  0  0  0  0  0
   37.4384  -12.3887   26.7723 H   0  0  0  0  0  0  0  0  0  0  0  0
   37.1947  -11.8838   28.3200 H   0  0  0  0  0  0  0  0  0  0  0  0
   38.5481  -19.5414   27.5607 H   0  0  0  0  0  0  0  0  0  0  0  0
  1 19  1  0  0  0  0
  1 23  2  0  0  0  0
  2 30  1  0  0  0  0
  2 32  1  0  0  0  0
  3 24  2  0  0  0  0
  3 29  1  0  0  0  0
  4 13  1  0  0  0  0
  4 31  2  0  0  0  0
  5 20  2  0  0  0  0
  5 21  1  0  0  0  0
  6 11  1  0  0  0  0
  6 35  2  0  0  0  0
  7  9  1  0  0  0  0
  7 36  1  0  0  0  0
  7 37  1  0  0  0  0
  8 10  1  0  0  0  0
  8 38  1  0  0  0  0
  8 39  1  0  0  0  0
  9 26  1  0  0  0  0
  9 40  1  0  0  0  0
  9 41  1  0  0  0  0
 10 26  1  0  0  0  0
 10 42  1  0  0  0  0
 10 43  1  0  0  0  0
 11  7  1  0  0  0  0
 11  8  1  0  0  0  0
 11 44  1  6  0  0  0
 12 22  1  0  0  0  0
 12 45  1  0  0  0  0
 13  2  2  0  0  0  0
 14 33  1  0  0  0  0
 14 46  1  0  0  0  0
 14 47  1  0  0  0  0
 15 48  1  0  0  0  0
 16 15  2  0  0  0  0
 16 49  1  0  0  0  0
 17 15  1  0  0  0  0
 17 50  1  0  0  0  0
 18 13  1  0  0  0  0
 18 51  1  0  0  0  0
 19 18  2  0  0  0  0
 19 52  1  0  0  0  0
 20 16  1  0  0  0  0
 20 53  1  0  0  0  0
 21 17  2  0  0  0  0
 21 54  1  0  0  0  0
 22 55  1  0  0  0  0
 23  4  1  0  0  0  0
 23 56  1  0  0  0  0
 24 25  1  0  0  0  0
 24 57  1  0  0  0  0
 25  1  1  0  0  0  0
 25 22  2  0  0  0  0
 26 14  1  0  0  0  0
 26 58  1  1  0  0  0
 27  5  1  0  0  0  0
 27 59  1  0  0  0  0
 27 60  1  0  0  0  0
 28  3  1  0  0  0  0
 28 27  1  0  0  0  0
 28 34  1  0  0  0  0
 28 61  1  1  0  0  0
 29 12  2  0  0  0  0
 30 31  1  0  0  0  0
 30 62  1  0  0  0  0
 32 63  1  0  0  0  0
 32 64  1  0  0  0  0
 33 65  1  0  0  0  0
 33 66  1  0  0  0  0
 33 67  1  0  0  0  0
 34  6  1  0  0  0  0
 34 68  1  0  0  0  0
M  CHG  1  33   1
M  END
