4wy3_ligand
 OpenBabel08222323353D

 70 74  0  0  1  0  0  0  0  0999 V2000
  -21.0300  -44.7730    1.3920 O   0  0  0  0  0  0  0  0  0  0  0  0
  -20.5690  -43.6450    1.4530 C   0  0  0  0  0  0  0  0  0  0  0  0
  -21.3940  -42.5090    2.0100 C   0  0  2  0  0  0  0  0  0  0  0  0
  -20.4920  -41.5640    2.7940 C   0  0  0  0  0  0  0  0  0  0  0  0
  -19.8000  -40.6210    1.8400 C   0  0  0  0  0  0  0  0  0  0  0  0
  -18.5780  -40.0730    2.0050 N   0  0  0  0  0  0  0  0  0  0  0  0
  -18.3200  -39.2900    0.9340 C   0  0  0  0  0  0  0  0  0  0  0  0
  -19.3770  -39.3420    0.0950 N   0  0  0  0  0  0  0  0  0  0  0  0
  -20.3050  -40.1600    0.6350 C   0  0  0  0  0  0  0  0  0  0  0  0
  -22.4360  -43.0500    2.9040 N   0  3  0  0  0  0  0  0  0  0  0  0
  -23.3880  -41.9820    3.2500 C   0  0  0  0  0  0  0  0  0  0  0  0
  -24.7610  -42.5940    3.5290 C   0  0  1  0  0  0  0  0  0  0  0  0
  -24.8730  -42.9890    5.0000 C   0  0  0  0  0  0  0  0  0  0  0  0
  -24.7540  -41.7770    5.9130 C   0  0  2  0  0  0  0  0  0  0  0  0
  -24.9510  -42.1890    7.3660 C   0  0  0  0  0  0  0  0  0  0  0  0
  -24.8580  -40.9770    8.2860 C   0  0  0  0  0  0  0  0  0  0  0  0
  -25.8460  -39.8910    7.8750 C   0  0  0  0  0  0  0  0  0  0  0  0
  -25.6640  -39.4990    6.4120 C   0  0  0  0  0  0  0  0  0  0  0  0
  -25.7730  -40.7230    5.5120 C   0  0  1  0  0  0  0  0  0  0  0  0
  -25.5640  -40.3270    4.0570 C   0  0  0  0  0  0  0  0  0  0  0  0
  -25.7640  -41.5530    3.2900 N   0  0  0  0  0  0  0  0  0  0  0  0
  -26.7520  -41.7760    2.4270 C   0  0  0  0  0  0  0  0  0  0  0  0
  -27.1490  -42.9030    2.1820 O   0  0  0  0  0  0  0  0  0  0  0  0
  -27.3910  -40.6050    1.7410 C   0  0  0  0  0  0  0  0  0  0  0  0
  -28.2890  -39.8000    2.4320 C   0  0  0  0  0  0  0  0  0  0  0  0
  -28.8810  -38.7150    1.7960 C   0  0  0  0  0  0  0  0  0  0  0  0
  -28.5750  -38.4350    0.4690 C   0  0  0  0  0  0  0  0  0  0  0  0
  -27.6770  -39.2410   -0.2220 C   0  0  0  0  0  0  0  0  0  0  0  0
  -27.0850  -40.3250    0.4140 C   0  0  0  0  0  0  0  0  0  0  0  0
  -29.2080  -37.2750   -0.2110 C   0  0  0  0  0  0  0  0  0  0  0  0
  -29.2600  -37.2260   -1.5990 C   0  0  0  0  0  0  0  0  0  0  0  0
  -29.8520  -36.1410   -2.2350 C   0  0  0  0  0  0  0  0  0  0  0  0
  -30.3930  -35.1050   -1.4830 C   0  0  0  0  0  0  0  0  0  0  0  0
  -30.3410  -35.1530   -0.0950 C   0  0  0  0  0  0  0  0  0  0  0  0
  -29.7490  -36.2380    0.5410 C   0  0  0  0  0  0  0  0  0  0  0  0
  -19.5552  -43.4558    1.1033 H   0  0  0  0  0  0  0  0  0  0  0  0
  -21.8690  -41.9608    1.1831 H   0  0  0  0  0  0  0  0  0  0  0  0
  -19.7387  -42.1477    3.3433 H   0  0  0  0  0  0  0  0  0  0  0  0
  -21.0983  -40.9852    3.5063 H   0  0  0  0  0  0  0  0  0  0  0  0
  -17.9508  -40.2250    2.8077 H   0  0  0  0  0  0  0  0  0  0  0  0
  -17.4105  -38.7128    0.7741 H   0  0  0  0  0  0  0  0  0  0  0  0
  -21.2726  -40.4113    0.2030 H   0  0  0  0  0  0  0  0  0  0  0  0
  -22.0070  -43.4032    3.7450 H   0  0  0  0  0  0  0  0  0  0  0  0
  -22.9248  -43.7975    2.4367 H   0  0  0  0  0  0  0  0  0  0  0  0
  -23.4656  -41.2742    2.4116 H   0  0  0  0  0  0  0  0  0  0  0  0
  -23.0341  -41.4515    4.1463 H   0  0  0  0  0  0  0  0  0  0  0  0
  -24.9323  -43.4658    2.8805 H   0  0  0  0  0  0  0  0  0  0  0  0
  -24.0685  -43.6991    5.2418 H   0  0  0  0  0  0  0  0  0  0  0  0
  -25.8484  -43.4688    5.1681 H   0  0  0  0  0  0  0  0  0  0  0  0
  -23.7459  -41.3506    5.8035 H   0  0  0  0  0  0  0  0  0  0  0  0
  -24.1725  -42.9145    7.6445 H   0  0  0  0  0  0  0  0  0  0  0  0
  -25.9420  -42.6530    7.4788 H   0  0  0  0  0  0  0  0  0  0  0  0
  -23.8375  -40.5691    8.2389 H   0  0  0  0  0  0  0  0  0  0  0  0
  -25.0800  -41.2917    9.3164 H   0  0  0  0  0  0  0  0  0  0  0  0
  -25.6862  -39.0041    8.5058 H   0  0  0  0  0  0  0  0  0  0  0  0
  -26.8702  -40.2649    8.0207 H   0  0  0  0  0  0  0  0  0  0  0  0
  -24.6725  -39.0410    6.2810 H   0  0  0  0  0  0  0  0  0  0  0  0
  -26.4426  -38.7741    6.1323 H   0  0  0  0  0  0  0  0  0  0  0  0
  -26.7812  -41.1493    5.6207 H   0  0  0  0  0  0  0  0  0  0  0  0
  -24.5455  -39.9401    3.9057 H   0  0  0  0  0  0  0  0  0  0  0  0
  -26.2952  -39.5618    3.7573 H   0  0  0  0  0  0  0  0  0  0  0  0
  -28.5276  -40.0183    3.4666 H   0  0  0  0  0  0  0  0  0  0  0  0
  -29.5814  -38.0871    2.3348 H   0  0  0  0  0  0  0  0  0  0  0  0
  -27.4389  -39.0235   -1.2569 H   0  0  0  0  0  0  0  0  0  0  0  0
  -26.3843  -40.9527   -0.1245 H   0  0  0  0  0  0  0  0  0  0  0  0
  -28.8387  -38.0342   -2.1858 H   0  0  0  0  0  0  0  0  0  0  0  0
  -29.8917  -36.1029   -3.3176 H   0  0  0  0  0  0  0  0  0  0  0  0
  -30.8556  -34.2594   -1.9791 H   0  0  0  0  0  0  0  0  0  0  0  0
  -30.7620  -34.3444    0.4915 H   0  0  0  0  0  0  0  0  0  0  0  0
  -29.7091  -36.2757    1.6236 H   0  0  0  0  0  0  0  0  0  0  0  0
  1  2  2  0  0  0  0
  2  3  1  0  0  0  0
  2 36  1  0  0  0  0
  3  4  1  0  0  0  0
  3 10  1  0  0  0  0
  3 37  1  6  0  0  0
  4  5  1  0  0  0  0
  4 38  1  0  0  0  0
  4 39  1  0  0  0  0
  5  6  1  0  0  0  0
  5  9  2  0  0  0  0
  6  7  1  0  0  0  0
  6 40  1  0  0  0  0
  7  8  2  0  0  0  0
  7 41  1  0  0  0  0
  8  9  1  0  0  0  0
  9 42  1  0  0  0  0
 10 11  1  0  0  0  0
 10 43  1  0  0  0  0
 10 44  1  0  0  0  0
 11 12  1  0  0  0  0
 11 45  1  0  0  0  0
 11 46  1  0  0  0  0
 12 13  1  0  0  0  0
 12 21  1  0  0  0  0
 12 47  1  6  0  0  0
 13 14  1  0  0  0  0
 13 48  1  0  0  0  0
 13 49  1  0  0  0  0
 14 15  1  0  0  0  0
 14 19  1  0  0  0  0
 14 50  1  6  0  0  0
 15 16  1  0  0  0  0
 15 51  1  0  0  0  0
 15 52  1  0  0  0  0
 16 17  1  0  0  0  0
 16 53  1  0  0  0  0
 16 54  1  0  0  0  0
 17 18  1  0  0  0  0
 17 55  1  0  0  0  0
 17 56  1  0  0  0  0
 18 19  1  0  0  0  0
 18 57  1  0  0  0  0
 18 58  1  0  0  0  0
 19 20  1  0  0  0  0
 19 59  1  1  0  0  0
 20 21  1  0  0  0  0
 20 60  1  0  0  0  0
 20 61  1  0  0  0  0
 21 22  1  0  0  0  0
 22 23  2  0  0  0  0
 22 24  1  0  0  0  0
 24 25  2  0  0  0  0
 24 29  1  0  0  0  0
 25 26  1  0  0  0  0
 25 62  1  0  0  0  0
 26 27  2  0  0  0  0
 26 63  1  0  0  0  0
 27 28  1  0  0  0  0
 27 30  1  0  0  0  0
 28 29  2  0  0  0  0
 28 64  1  0  0  0  0
 29 65  1  0  0  0  0
 30 31  2  0  0  0  0
 30 35  1  0  0  0  0
 31 32  1  0  0  0  0
 31 66  1  0  0  0  0
 32 33  2  0  0  0  0
 32 67  1  0  0  0  0
 33 34  1  0  0  0  0
 33 68  1  0  0  0  0
 34 35  2  0  0  0  0
 34 69  1  0  0  0  0
 35 70  1  0  0  0  0
M  CHG  1  10   1
M  END
