4wym_ligand
 OpenBabel08222323353D

196202  0  0  1  0  0  0  0  0999 V2000
    1.9290  -66.1060  -56.7640 N   0  3  0  0  0  0  0  0  0  0  0  0
    2.1250  -64.8360  -56.0550 C   0  0  2  0  0  0  0  0  0  0  0  0
    0.8060  -64.2220  -55.5870 C   0  0  0  0  0  0  0  0  0  0  0  0
    0.1510  -63.5040  -56.3420 O   0  0  0  0  0  0  0  0  0  0  0  0
    2.8020  -63.9490  -57.1050 C   0  0  0  0  0  0  0  0  0  0  0  0
    2.3810  -64.5260  -58.4140 C   0  0  0  0  0  0  0  0  0  0  0  0
    2.2790  -66.0050  -58.1910 C   0  0  0  0  0  0  0  0  0  0  0  0
    0.4300  -64.5080  -54.3440 N   0  0  0  0  0  0  0  0  0  0  0  0
   -0.8120  -64.0020  -53.7710 C   0  0  2  0  0  0  0  0  0  0  0  0
   -0.7510  -62.4970  -53.5270 C   0  0  0  0  0  0  0  0  0  0  0  0
   -1.6660  -61.7600  -53.8940 O   0  0  0  0  0  0  0  0  0  0  0  0
   -1.1450  -64.7160  -52.4440 C   0  0  0  0  0  0  0  0  0  0  0  0
   -2.3080  -64.0330  -51.7360 C   0  0  0  0  0  0  0  0  0  0  0  0
   -1.4530  -66.1820  -52.6970 C   0  0  0  0  0  0  0  0  0  0  0  0
    0.3340  -62.0470  -52.9050 N   0  0  0  0  0  0  0  0  0  0  0  0
    0.5010  -60.6330  -52.5920 C   0  0  2  0  0  0  0  0  0  0  0  0
    1.6610  -60.0200  -53.3670 C   0  0  0  0  0  0  0  0  0  0  0  0
    2.7270  -60.6240  -53.4920 O   0  0  0  0  0  0  0  0  0  0  0  0
    0.7170  -60.4400  -51.0890 C   0  0  0  0  0  0  0  0  0  0  0  0
   -0.4760  -60.7720  -50.1920 C   0  0  0  0  0  0  0  0  0  0  0  0
   -0.1030  -60.6450  -48.7220 C   0  0  0  0  0  0  0  0  0  0  0  0
   -1.6490  -59.8680  -50.5310 C   0  0  0  0  0  0  0  0  0  0  0  0
    1.4410  -58.8160  -53.8840 N   0  0  0  0  0  0  0  0  0  0  0  0
    2.4640  -58.0960  -54.6310 C   0  0  2  0  0  0  0  0  0  0  0  0
    2.9310  -56.8620  -53.8580 C   0  0  0  0  0  0  0  0  0  0  0  0
    2.1830  -56.3220  -53.0420 O   0  0  0  0  0  0  0  0  0  0  0  0
    1.9330  -57.6960  -56.0100 C   0  0  0  0  0  0  0  0  0  0  0  0
    1.7150  -58.8580  -56.9370 C   0  0  0  0  0  0  0  0  0  0  0  0
    2.7820  -59.4440  -57.5990 C   0  0  0  0  0  0  0  0  0  0  0  0
    0.4430  -59.3620  -57.1510 C   0  0  0  0  0  0  0  0  0  0  0  0
    2.5850  -60.5110  -58.4540 C   0  0  0  0  0  0  0  0  0  0  0  0
    0.2400  -60.4290  -58.0060 C   0  0  0  0  0  0  0  0  0  0  0  0
    1.3130  -61.0040  -58.6570 C   0  0  0  0  0  0  0  0  0  0  0  0
    4.1770  -56.4240  -54.1010 N   0  0  0  0  0  0  0  0  0  0  0  0
    4.7140  -55.2370  -53.4240 C   0  0  2  0  0  0  0  0  0  0  0  0
    3.8800  -53.9840  -53.6690 C   0  0  0  0  0  0  0  0  0  0  0  0
    3.6210  -53.6320  -54.8200 O   0  0  0  0  0  0  0  0  0  0  0  0
    6.1060  -55.0820  -54.0410 C   0  0  0  0  0  0  0  0  0  0  0  0
    6.4710  -56.4450  -54.4940 C   0  0  0  0  0  0  0  0  0  0  0  0
    5.1920  -57.0830  -54.9420 C   0  0  0  0  0  0  0  0  0  0  0  0
    3.4650  -53.3260  -52.5910 N   0  0  0  0  0  0  0  0  0  0  0  0
    2.7250  -52.0830  -52.6990 C   0  0  0  0  0  0  0  0  0  0  0  0
    1.2370  -52.2250  -52.4420 C   0  0  0  0  0  0  0  0  0  0  0  0
    0.5980  -51.3020  -51.9360 O   0  0  0  0  0  0  0  0  0  0  0  0
    0.6810  -53.3800  -52.7930 N   0  0  0  0  0  0  0  0  0  0  0  0
   -0.7510  -53.6060  -52.6390 C   0  0  2  0  0  0  0  0  0  0  0  0
   -1.0870  -54.0090  -51.2060 C   0  0  0  0  0  0  0  0  0  0  0  0
   -0.3110  -54.7030  -50.5510 O   0  0  0  0  0  0  0  0  0  0  0  0
   -1.2400  -54.6740  -53.6230 C   0  0  0  0  0  0  0  0  0  0  0  0
   -0.9350  -56.1040  -53.2130 C   0  0  0  0  0  0  0  0  0  0  0  0
   -1.4640  -57.1180  -54.2040 C   0  0  0  0  0  0  0  0  0  0  0  0
   -1.3140  -56.9550  -55.4150 O   0  0  0  0  0  0  0  0  0  0  0  0
   -2.0930  -58.1710  -53.6940 N   0  0  0  0  0  0  0  0  0  0  0  0
   -2.2440  -53.5510  -50.7080 N   0  0  0  0  0  0  0  0  0  0  0  0
   -2.7100  -53.8710  -49.3540 C   0  0  2  0  0  0  0  0  0  0  0  0
   -2.9940  -55.3610  -49.1640 C   0  0  0  0  0  0  0  0  0  0  0  0
   -3.0880  -56.1030  -50.1440 O   0  0  0  0  0  0  0  0  0  0  0  0
   -3.9990  -53.0520  -49.2240 C   0  0  0  0  0  0  0  0  0  0  0  0
   -3.8590  -51.9610  -50.2240 C   0  0  0  0  0  0  0  0  0  0  0  0
   -3.1180  -52.5690  -51.3700 C   0  0  0  0  0  0  0  0  0  0  0  0
   -3.1170  -55.7870  -47.9110 N   0  0  0  0  0  0  0  0  0  0  0  0
   -3.4450  -57.1730  -47.5960 C   0  0  2  0  0  0  0  0  0  0  0  0
   -4.8990  -57.4790  -47.9550 C   0  0  0  0  0  0  0  0  0  0  0  0
   -5.7950  -56.6810  -47.6780 O   0  0  0  0  0  0  0  0  0  0  0  0
   -3.1970  -57.4640  -46.1120 C   0  0  0  0  0  0  0  0  0  0  0  0
   -1.7460  -57.4160  -45.7100 C   0  0  0  0  0  0  0  0  0  0  0  0
   -1.1490  -56.2200  -45.3430 C   0  0  0  0  0  0  0  0  0  0  0  0
   -0.9840  -58.5730  -45.6830 C   0  0  0  0  0  0  0  0  0  0  0  0
    0.1840  -56.1770  -44.9690 C   0  0  0  0  0  0  0  0  0  0  0  0
    0.3490  -58.5360  -45.3090 C   0  0  0  0  0  0  0  0  0  0  0  0
    0.9320  -57.3370  -44.9520 C   0  0  0  0  0  0  0  0  0  0  0  0
   -5.1280  -58.6350  -48.5710 N   0  0  0  0  0  0  0  0  0  0  0  0
   -6.4690  -59.0480  -48.9470 C   0  0  0  0  0  0  0  0  0  0  0  0
   -6.9620  -58.3970  -50.2260 C   0  0  0  0  0  0  0  0  0  0  0  0
   -8.1500  -58.4630  -50.5500 O   0  0  0  0  0  0  0  0  0  0  0  0
   -6.0460  -57.7700  -50.9560 N   0  0  0  0  0  0  0  0  0  0  0  0
   -6.3840  -57.1010  -52.2060 C   0  0  2  0  0  0  0  0  0  0  0  0
   -6.4890  -58.0970  -53.3560 C   0  0  0  0  0  0  0  0  0  0  0  0
   -5.5190  -58.7870  -53.6740 O   0  0  0  0  0  0  0  0  0  0  0  0
   -5.3420  -56.0290  -52.5340 C   0  0  0  0  0  0  0  0  0  0  0  0
   -5.6030  -55.2810  -53.8300 C   0  0  0  0  0  0  0  0  0  0  0  0
   -6.8590  -54.4360  -53.7740 C   0  0  0  0  0  0  0  0  0  0  0  0
   -7.6790  -54.4600  -54.6930 O   0  0  0  0  0  0  0  0  0  0  0  0
   -7.0150  -53.6770  -52.6960 N   0  0  0  0  0  0  0  0  0  0  0  0
   -7.6730  -58.1710  -53.9850 N   0  0  0  0  0  0  0  0  0  0  0  0
   -7.9180  -59.0600  -55.1260 C   0  0  2  0  0  0  0  0  0  0  0  0
   -7.0960  -58.6690  -56.3530 C   0  0  0  0  0  0  0  0  0  0  0  0
   -6.8380  -57.4820  -56.5560 O   0  0  0  0  0  0  0  0  0  0  0  0
   -9.4180  -58.8850  -55.3910 C   0  0  0  0  0  0  0  0  0  0  0  0
   -9.7460  -57.5400  -54.8370 C   0  0  0  0  0  0  0  0  0  0  0  0
   -8.8690  -57.3880  -53.6290 C   0  0  0  0  0  0  0  0  0  0  0  0
   -6.6860  -59.6630  -57.1600 N   0  0  0  0  0  0  0  0  0  0  0  0
   -5.8630  -59.4420  -58.3560 C   0  0  2  0  0  0  0  0  0  0  0  0
   -6.5230  -58.5080  -59.3670 C   0  0  0  0  0  0  0  0  0  0  0  0
   -5.8790  -58.1520  -60.3540 O   0  5  0  0  0  0  0  0  0  0  0  0
   -5.7120  -60.8510  -58.9430 C   0  0  0  0  0  0  0  0  0  0  0  0
   -5.9250  -61.7680  -57.7890 C   0  0  0  0  0  0  0  0  0  0  0  0
   -6.9580  -61.0940  -56.9390 C   0  0  0  0  0  0  0  0  0  0  0  0
    0.9610  -66.3759  -56.6853 H   0  0  0  0  0  0  0  0  0  0  0  0
    2.5100  -66.8099  -56.3362 H   0  0  0  0  0  0  0  0  0  0  0  0
    2.7814  -64.9790  -55.1840 H   0  0  0  0  0  0  0  0  0  0  0  0
    3.8961  -63.9869  -56.9980 H   0  0  0  0  0  0  0  0  0  0  0  0
    2.4603  -62.9076  -57.0120 H   0  0  0  0  0  0  0  0  0  0  0  0
    3.1299  -64.3057  -59.1890 H   0  0  0  0  0  0  0  0  0  0  0  0
    1.4068  -64.1159  -58.7184 H   0  0  0  0  0  0  0  0  0  0  0  0
    1.4934  -66.4459  -58.8222 H   0  0  0  0  0  0  0  0  0  0  0  0
    3.2380  -66.5023  -58.3982 H   0  0  0  0  0  0  0  0  0  0  0  0
    1.0189  -65.0898  -53.7830 H   0  0  0  0  0  0  0  0  0  0  0  0
   -1.6220  -64.2036  -54.4874 H   0  0  0  0  0  0  0  0  0  0  0  0
   -0.2627  -64.6567  -51.7897 H   0  0  0  0  0  0  0  0  0  0  0  0
   -2.5249  -64.5600  -50.7951 H   0  0  0  0  0  0  0  0  0  0  0  0
   -3.1969  -64.0577  -52.3834 H   0  0  0  0  0  0  0  0  0  0  0  0
   -2.0420  -62.9881  -51.5181 H   0  0  0  0  0  0  0  0  0  0  0  0
   -0.6003  -66.6529  -53.2081 H   0  0  0  0  0  0  0  0  0  0  0  0
   -2.3500  -66.2646  -53.3283 H   0  0  0  0  0  0  0  0  0  0  0  0
   -1.6316  -66.6900  -51.7378 H   0  0  0  0  0  0  0  0  0  0  0  0
    1.0520  -62.6930  -52.6459 H   0  0  0  0  0  0  0  0  0  0  0  0
   -0.4212  -60.1076  -52.8811 H   0  0  0  0  0  0  0  0  0  0  0  0
    0.9821  -59.3859  -50.9197 H   0  0  0  0  0  0  0  0  0  0  0  0
    1.5561  -61.0827  -50.7844 H   0  0  0  0  0  0  0  0  0  0  0  0
   -0.7739  -61.8136  -50.3825 H   0  0  0  0  0  0  0  0  0  0  0  0
   -0.9767  -60.8886  -48.0997 H   0  0  0  0  0  0  0  0  0  0  0  0
    0.2199  -59.6144  -48.5133 H   0  0  0  0  0  0  0  0  0  0  0  0
    0.7174  -61.3403  -48.4904 H   0  0  0  0  0  0  0  0  0  0  0  0
   -1.8998  -59.9768  -51.5965 H   0  0  0  0  0  0  0  0  0  0  0  0
   -1.3782  -58.8223  -50.3231 H   0  0  0  0  0  0  0  0  0  0  0  0
   -2.5184  -60.1503  -49.9190 H   0  0  0  0  0  0  0  0  0  0  0  0
    0.5451  -58.3906  -53.7564 H   0  0  0  0  0  0  0  0  0  0  0  0
    3.3266  -58.7642  -54.7708 H   0  0  0  0  0  0  0  0  0  0  0  0
    2.6580  -57.0123  -56.4757 H   0  0  0  0  0  0  0  0  0  0  0  0
    0.9733  -57.1759  -55.8745 H   0  0  0  0  0  0  0  0  0  0  0  0
    3.7839  -59.0603  -57.4440 H   0  0  0  0  0  0  0  0  0  0  0  0
   -0.4032  -58.9146  -56.6422 H   0  0  0  0  0  0  0  0  0  0  0  0
    3.4291  -60.9602  -58.9647 H   0  0  0  0  0  0  0  0  0  0  0  0
   -0.7608  -60.8139  -58.1652 H   0  0  0  0  0  0  0  0  0  0  0  0
    1.1560  -61.8418  -59.3268 H   0  0  0  0  0  0  0  0  0  0  0  0
    4.7832  -55.4134  -52.3405 H   0  0  0  0  0  0  0  0  0  0  0  0
    6.8239  -54.7171  -53.2917 H   0  0  0  0  0  0  0  0  0  0  0  0
    6.0778  -54.3852  -54.8917 H   0  0  0  0  0  0  0  0  0  0  0  0
    6.9151  -57.0175  -53.6664 H   0  0  0  0  0  0  0  0  0  0  0  0
    7.1856  -56.3926  -55.3286 H   0  0  0  0  0  0  0  0  0  0  0  0
    5.0069  -56.8896  -56.0089 H   0  0  0  0  0  0  0  0  0  0  0  0
    5.2085  -58.1683  -54.7636 H   0  0  0  0  0  0  0  0  0  0  0  0
    3.6677  -53.6965  -51.6846 H   0  0  0  0  0  0  0  0  0  0  0  0
    2.8638  -51.6853  -53.7151 H   0  0  0  0  0  0  0  0  0  0  0  0
    3.1357  -51.3715  -51.9675 H   0  0  0  0  0  0  0  0  0  0  0  0
    1.2552  -54.1070  -53.1695 H   0  0  0  0  0  0  0  0  0  0  0  0
   -1.2735  -52.6645  -52.8637 H   0  0  0  0  0  0  0  0  0  0  0  0
   -0.7620  -54.4876  -54.5960 H   0  0  0  0  0  0  0  0  0  0  0  0
   -2.3305  -54.5723  -53.7246 H   0  0  0  0  0  0  0  0  0  0  0  0
   -1.3959  -56.2956  -52.2328 H   0  0  0  0  0  0  0  0  0  0  0  0
    0.1557  -56.2233  -53.1350 H   0  0  0  0  0  0  0  0  0  0  0  0
   -2.4639  -58.8740  -54.3007 H   0  0  0  0  0  0  0  0  0  0  0  0
   -2.1956  -58.2607  -52.7033 H   0  0  0  0  0  0  0  0  0  0  0  0
   -1.9675  -53.5516  -48.6079 H   0  0  0  0  0  0  0  0  0  0  0  0
   -4.0941  -52.6377  -48.2095 H   0  0  0  0  0  0  0  0  0  0  0  0
   -4.8776  -53.6740  -49.4499 H   0  0  0  0  0  0  0  0  0  0  0  0
   -3.2902  -51.1204  -49.8000 H   0  0  0  0  0  0  0  0  0  0  0  0
   -4.8484  -51.6072  -50.5493 H   0  0  0  0  0  0  0  0  0  0  0  0
   -3.8077  -53.0615  -52.0713 H   0  0  0  0  0  0  0  0  0  0  0  0
   -2.5279  -51.8117  -51.9069 H   0  0  0  0  0  0  0  0  0  0  0  0
   -2.9807  -55.1383  -47.1623 H   0  0  0  0  0  0  0  0  0  0  0  0
   -2.7933  -57.8276  -48.1933 H   0  0  0  0  0  0  0  0  0  0  0  0
   -3.5846  -58.4687  -45.8875 H   0  0  0  0  0  0  0  0  0  0  0  0
   -3.7450  -56.7182  -45.5174 H   0  0  0  0  0  0  0  0  0  0  0  0
   -1.7328  -55.3067  -45.3488 H   0  0  0  0  0  0  0  0  0  0  0  0
   -1.4368  -59.5187  -45.9580 H   0  0  0  0  0  0  0  0  0  0  0  0
    0.6392  -55.2336  -44.6900 H   0  0  0  0  0  0  0  0  0  0  0  0
    0.9342  -59.4484  -45.2967 H   0  0  0  0  0  0  0  0  0  0  0  0
    1.9752  -57.3063  -44.6589 H   0  0  0  0  0  0  0  0  0  0  0  0
   -4.3567  -59.2359  -48.7810 H   0  0  0  0  0  0  0  0  0  0  0  0
   -7.1577  -58.7814  -48.1318 H   0  0  0  0  0  0  0  0  0  0  0  0
   -6.4717  -60.1390  -49.0873 H   0  0  0  0  0  0  0  0  0  0  0  0
   -5.0977  -57.7567  -50.6388 H   0  0  0  0  0  0  0  0  0  0  0  0
   -7.3613  -56.6117  -52.0819 H   0  0  0  0  0  0  0  0  0  0  0  0
   -4.3585  -56.5158  -52.6091 H   0  0  0  0  0  0  0  0  0  0  0  0
   -5.3279  -55.2988  -51.7114 H   0  0  0  0  0  0  0  0  0  0  0  0
   -5.7075  -56.0133  -54.6442 H   0  0  0  0  0  0  0  0  0  0  0  0
   -4.7454  -54.6236  -54.0359 H   0  0  0  0  0  0  0  0  0  0  0  0
   -7.8254  -53.0983  -52.6050 H   0  0  0  0  0  0  0  0  0  0  0  0
   -6.3221  -53.6840  -51.9750 H   0  0  0  0  0  0  0  0  0  0  0  0
   -7.6881  -60.1020  -54.8587 H   0  0  0  0  0  0  0  0  0  0  0  0
   -9.9964  -59.6674  -54.8779 H   0  0  0  0  0  0  0  0  0  0  0  0
   -9.6282  -58.9218  -56.4701 H   0  0  0  0  0  0  0  0  0  0  0  0
  -10.8072  -57.4883  -54.5522 H   0  0  0  0  0  0  0  0  0  0  0  0
   -9.5257  -56.7546  -55.5749 H   0  0  0  0  0  0  0  0  0  0  0  0
   -8.6131  -56.3321  -53.4570 H   0  0  0  0  0  0  0  0  0  0  0  0
   -9.3571  -57.7978  -52.7324 H   0  0  0  0  0  0  0  0  0  0  0  0
   -4.8833  -59.0282  -58.0750 H   0  0  0  0  0  0  0  0  0  0  0  0
   -7.7055  -58.1086  -59.1945 O   0  0  0  0  0  0  0  0  0  0  0  0
   -4.7063  -60.9886  -59.3669 H   0  0  0  0  0  0  0  0  0  0  0  0
   -6.4664  -61.0286  -59.7236 H   0  0  0  0  0  0  0  0  0  0  0  0
   -4.9899  -61.9031  -57.2256 H   0  0  0  0  0  0  0  0  0  0  0  0
   -6.2890  -62.7465  -58.1356 H   0  0  0  0  0  0  0  0  0  0  0  0
   -7.9740  -61.3587  -57.2671 H   0  0  0  0  0  0  0  0  0  0  0  0
   -6.8336  -61.3611  -55.8792 H   0  0  0  0  0  0  0  0  0  0  0  0
  1  2  1  0  0  0  0
  1  7  1  0  0  0  0
  1 99  1  0  0  0  0
  1100  1  0  0  0  0
  2  3  1  0  0  0  0
  2  5  1  0  0  0  0
  2101  1  1  0  0  0
  3  4  2  0  0  0  0
  3  8  1  0  0  0  0
  5  6  1  0  0  0  0
  5102  1  0  0  0  0
  5103  1  0  0  0  0
  6  7  1  0  0  0  0
  6104  1  0  0  0  0
  6105  1  0  0  0  0
  7106  1  0  0  0  0
  7107  1  0  0  0  0
  8  9  1  0  0  0  0
  8108  1  0  0  0  0
  9 10  1  0  0  0  0
  9 12  1  0  0  0  0
  9109  1  6  0  0  0
 10 11  2  0  0  0  0
 10 15  1  0  0  0  0
 12 13  1  0  0  0  0
 12 14  1  0  0  0  0
 12110  1  0  0  0  0
 13111  1  0  0  0  0
 13112  1  0  0  0  0
 13113  1  0  0  0  0
 14114  1  0  0  0  0
 14115  1  0  0  0  0
 14116  1  0  0  0  0
 15 16  1  0  0  0  0
 15117  1  0  0  0  0
 16 17  1  0  0  0  0
 16 19  1  0  0  0  0
 16118  1  6  0  0  0
 17 18  2  0  0  0  0
 17 23  1  0  0  0  0
 19 20  1  0  0  0  0
 19119  1  0  0  0  0
 19120  1  0  0  0  0
 20 21  1  0  0  0  0
 20 22  1  0  0  0  0
 20121  1  0  0  0  0
 21122  1  0  0  0  0
 21123  1  0  0  0  0
 21124  1  0  0  0  0
 22125  1  0  0  0  0
 22126  1  0  0  0  0
 22127  1  0  0  0  0
 23 24  1  0  0  0  0
 23128  1  0  0  0  0
 24 25  1  0  0  0  0
 24 27  1  0  0  0  0
 24129  1  6  0  0  0
 25 26  2  0  0  0  0
 25 34  1  0  0  0  0
 27 28  1  0  0  0  0
 27130  1  0  0  0  0
 27131  1  0  0  0  0
 28 29  2  0  0  0  0
 28 30  1  0  0  0  0
 29 31  1  0  0  0  0
 29132  1  0  0  0  0
 30 32  2  0  0  0  0
 30133  1  0  0  0  0
 31 33  2  0  0  0  0
 31134  1  0  0  0  0
 32 33  1  0  0  0  0
 32135  1  0  0  0  0
 33136  1  0  0  0  0
 34 35  1  0  0  0  0
 34 40  1  0  0  0  0
 35 36  1  0  0  0  0
 35 38  1  0  0  0  0
 35137  1  1  0  0  0
 36 37  2  0  0  0  0
 36 41  1  0  0  0  0
 38 39  1  0  0  0  0
 38138  1  0  0  0  0
 38139  1  0  0  0  0
 39 40  1  0  0  0  0
 39140  1  0  0  0  0
 39141  1  0  0  0  0
 40142  1  0  0  0  0
 40143  1  0  0  0  0
 41 42  1  0  0  0  0
 41144  1  0  0  0  0
 42 43  1  0  0  0  0
 42145  1  0  0  0  0
 42146  1  0  0  0  0
 43 44  2  0  0  0  0
 43 45  1  0  0  0  0
 45 46  1  0  0  0  0
 45147  1  0  0  0  0
 46 47  1  0  0  0  0
 46 49  1  0  0  0  0
 46148  1  6  0  0  0
 47 48  2  0  0  0  0
 47 54  1  0  0  0  0
 49 50  1  0  0  0  0
 49149  1  0  0  0  0
 49150  1  0  0  0  0
 50 51  1  0  0  0  0
 50151  1  0  0  0  0
 50152  1  0  0  0  0
 51 52  2  0  0  0  0
 51 53  1  0  0  0  0
 53153  1  0  0  0  0
 53154  1  0  0  0  0
 54 55  1  0  0  0  0
 54 60  1  0  0  0  0
 55 56  1  0  0  0  0
 55 58  1  0  0  0  0
 55155  1  1  0  0  0
 56 57  2  0  0  0  0
 56 61  1  0  0  0  0
 58 59  1  0  0  0  0
 58156  1  0  0  0  0
 58157  1  0  0  0  0
 59 60  1  0  0  0  0
 59158  1  0  0  0  0
 59159  1  0  0  0  0
 60160  1  0  0  0  0
 60161  1  0  0  0  0
 61 62  1  0  0  0  0
 61162  1  0  0  0  0
 62 63  1  0  0  0  0
 62 65  1  0  0  0  0
 62163  1  6  0  0  0
 63 64  2  0  0  0  0
 63 72  1  0  0  0  0
 65 66  1  0  0  0  0
 65164  1  0  0  0  0
 65165  1  0  0  0  0
 66 67  2  0  0  0  0
 66 68  1  0  0  0  0
 67 69  1  0  0  0  0
 67166  1  0  0  0  0
 68 70  2  0  0  0  0
 68167  1  0  0  0  0
 69 71  2  0  0  0  0
 69168  1  0  0  0  0
 70 71  1  0  0  0  0
 70169  1  0  0  0  0
 71170  1  0  0  0  0
 72 73  1  0  0  0  0
 72171  1  0  0  0  0
 73 74  1  0  0  0  0
 73172  1  0  0  0  0
 73173  1  0  0  0  0
 74 75  2  0  0  0  0
 74 76  1  0  0  0  0
 76 77  1  0  0  0  0
 76174  1  0  0  0  0
 77 78  1  0  0  0  0
 77 80  1  0  0  0  0
 77175  1  1  0  0  0
 78 79  2  0  0  0  0
 78 85  1  0  0  0  0
 80 81  1  0  0  0  0
 80176  1  0  0  0  0
 80177  1  0  0  0  0
 81 82  1  0  0  0  0
 81178  1  0  0  0  0
 81179  1  0  0  0  0
 82 83  2  0  0  0  0
 82 84  1  0  0  0  0
 84180  1  0  0  0  0
 84181  1  0  0  0  0
 85 86  1  0  0  0  0
 85 91  1  0  0  0  0
 86 87  1  0  0  0  0
 86 89  1  0  0  0  0
 86182  1  1  0  0  0
 87 88  2  0  0  0  0
 87 92  1  0  0  0  0
 89 90  1  0  0  0  0
 89183  1  0  0  0  0
 89184  1  0  0  0  0
 90 91  1  0  0  0  0
 90185  1  0  0  0  0
 90186  1  0  0  0  0
 91187  1  0  0  0  0
 91188  1  0  0  0  0
 92 93  1  0  0  0  0
 92 98  1  0  0  0  0
 93 94  1  0  0  0  0
 93 96  1  0  0  0  0
 93189  1  1  0  0  0
 94 95  1  0  0  0  0
 94190  2  0  0  0  0
 96 97  1  0  0  0  0
 96191  1  0  0  0  0
 96192  1  0  0  0  0
 97 98  1  0  0  0  0
 97193  1  0  0  0  0
 97194  1  0  0  0  0
 98195  1  0  0  0  0
 98196  1  0  0  0  0
M  CHG  2   1   1  95  -1
M  END
