4wyo_ligand
 OpenBabel08222323353D

 55 59  0  0  0  0  0  0  0  0999 V2000
   11.5070  -10.3530  -18.8370 C   0  0  0  0  0  0  0  0  0  0  0  0
   10.0600  -10.9770  -22.3500 C   0  0  0  0  0  0  0  0  0  0  0  0
   10.7000  -11.2710  -20.9890 C   0  0  0  0  0  0  0  0  0  0  0  0
    5.6550   -9.0640  -15.6030 C   0  0  0  0  0  0  0  0  0  0  0  0
    7.3440  -11.2850  -15.4010 C   0  0  0  0  0  0  0  0  0  0  0  0
    4.5150   -8.1600  -15.5840 C   0  0  0  0  0  0  0  0  0  0  0  0
   10.1880   -7.3660  -22.4780 C   0  0  0  0  0  0  0  0  0  0  0  0
   10.5200  -10.0970  -20.0020 C   0  0  0  0  0  0  0  0  0  0  0  0
    9.0360  -10.0780  -19.5510 C   0  0  0  0  0  0  0  0  0  0  0  0
    8.8350   -9.1610  -18.3340 C   0  0  0  0  0  0  0  0  0  0  0  0
    9.7820   -9.5630  -17.2670 N   0  0  0  0  0  0  0  0  0  0  0  0
   11.2290   -9.4950  -17.5920 C   0  0  0  0  0  0  0  0  0  0  0  0
   10.8580   -8.8120  -20.5890 O   0  0  0  0  0  0  0  0  0  0  0  0
    9.6430  -11.8550  -23.0810 O   0  0  0  0  0  0  0  0  0  0  0  0
    9.3390   -9.9660  -16.0370 C   0  0  0  0  0  0  0  0  0  0  0  0
    7.8870  -10.0300  -15.7250 C   0  0  0  0  0  0  0  0  0  0  0  0
   10.1340  -10.3070  -15.1800 O   0  0  0  0  0  0  0  0  0  0  0  0
    7.0380   -8.9090  -15.8400 C   0  0  0  0  0  0  0  0  0  0  0  0
    5.9950  -11.4490  -15.2310 C   0  0  0  0  0  0  0  0  0  0  0  0
    5.1270  -10.3510  -15.2990 C   0  0  0  0  0  0  0  0  0  0  0  0
    3.4540   -8.8570  -15.2760 N   0  0  0  0  0  0  0  0  0  0  0  0
    3.7830  -10.2050  -15.0860 N   0  0  0  0  0  0  0  0  0  0  0  0
   10.3850   -8.5240  -21.8290 C   0  0  0  0  0  0  0  0  0  0  0  0
   10.0050   -9.5610  -22.7470 C   0  0  0  0  0  0  0  0  0  0  0  0
    9.5610   -8.9880  -23.8250 N   0  0  0  0  0  0  0  0  0  0  0  0
    9.6790   -7.6970  -23.7100 N   0  0  0  0  0  0  0  0  0  0  0  0
    9.3210   -6.7640  -24.7850 C   0  0  0  0  0  0  0  0  0  0  0  0
    7.8800   -7.0660  -25.2190 C   0  0  0  0  0  0  0  0  0  0  0  0
    9.4790   -5.3080  -24.3110 C   0  0  0  0  0  0  0  0  0  0  0  0
   10.2690   -7.0060  -25.9700 C   0  0  0  0  0  0  0  0  0  0  0  0
   12.5254  -10.1332  -19.1899 H   0  0  0  0  0  0  0  0  0  0  0  0
   11.4389  -11.4129  -18.5506 H   0  0  0  0  0  0  0  0  0  0  0  0
   11.7753  -11.4523  -21.1334 H   0  0  0  0  0  0  0  0  0  0  0  0
   10.2307  -12.1696  -20.5620 H   0  0  0  0  0  0  0  0  0  0  0  0
    8.0037  -12.1372  -15.2837 H   0  0  0  0  0  0  0  0  0  0  0  0
    4.5416   -7.0910  -15.7902 H   0  0  0  0  0  0  0  0  0  0  0  0
   10.3911   -6.3641  -22.1028 H   0  0  0  0  0  0  0  0  0  0  0  0
    8.7292  -11.1001  -19.2842 H   0  0  0  0  0  0  0  0  0  0  0  0
    8.4136   -9.7133  -20.3814 H   0  0  0  0  0  0  0  0  0  0  0  0
    7.8027   -9.2566  -17.9664 H   0  0  0  0  0  0  0  0  0  0  0  0
    9.0262   -8.1170  -18.6229 H   0  0  0  0  0  0  0  0  0  0  0  0
   11.5124   -8.4514  -17.7933 H   0  0  0  0  0  0  0  0  0  0  0  0
   11.8152   -9.8770  -16.7432 H   0  0  0  0  0  0  0  0  0  0  0  0
    7.4431   -7.9397  -16.1073 H   0  0  0  0  0  0  0  0  0  0  0  0
    5.5946  -12.4384  -15.0419 H   0  0  0  0  0  0  0  0  0  0  0  0
    3.1268  -10.9566  -14.8302 H   0  0  0  0  0  0  0  0  0  0  0  0
    7.5882   -6.3777  -26.0259 H   0  0  0  0  0  0  0  0  0  0  0  0
    7.2035   -6.9337  -24.3618 H   0  0  0  0  0  0  0  0  0  0  0  0
    7.8156   -8.1029  -25.5804 H   0  0  0  0  0  0  0  0  0  0  0  0
    9.2067   -4.6246  -25.1288 H   0  0  0  0  0  0  0  0  0  0  0  0
   10.5237   -5.1295  -24.0166 H   0  0  0  0  0  0  0  0  0  0  0  0
    8.8195   -5.1294  -23.4490 H   0  0  0  0  0  0  0  0  0  0  0  0
   10.0170   -6.3153  -26.7881 H   0  0  0  0  0  0  0  0  0  0  0  0
   10.1614   -8.0433  -26.3197 H   0  0  0  0  0  0  0  0  0  0  0  0
   11.3072   -6.8325  -25.6504 H   0  0  0  0  0  0  0  0  0  0  0  0
  1  8  1  0  0  0  0
  1 31  1  0  0  0  0
  1 32  1  0  0  0  0
  2 14  2  0  0  0  0
  2 24  1  0  0  0  0
  3  2  1  0  0  0  0
  3 33  1  0  0  0  0
  3 34  1  0  0  0  0
  4  6  1  0  0  0  0
  4 20  1  0  0  0  0
  5 19  1  0  0  0  0
  5 35  1  0  0  0  0
  6 21  2  0  0  0  0
  6 36  1  0  0  0  0
  7 26  1  0  0  0  0
  7 37  1  0  0  0  0
  8  3  1  0  0  0  0
  8 13  1  0  0  0  0
  9  8  1  0  0  0  0
  9 38  1  0  0  0  0
  9 39  1  0  0  0  0
 10  9  1  0  0  0  0
 10 40  1  0  0  0  0
 10 41  1  0  0  0  0
 11 10  1  0  0  0  0
 11 12  1  0  0  0  0
 12  1  1  0  0  0  0
 12 42  1  0  0  0  0
 12 43  1  0  0  0  0
 13 23  1  0  0  0  0
 15 11  1  0  0  0  0
 15 17  2  0  0  0  0
 16  5  2  0  0  0  0
 16 15  1  0  0  0  0
 16 18  1  0  0  0  0
 18  4  2  0  0  0  0
 18 44  1  0  0  0  0
 19 20  2  0  0  0  0
 19 45  1  0  0  0  0
 20 22  1  0  0  0  0
 21 22  1  0  0  0  0
 22 46  1  0  0  0  0
 23  7  2  0  0  0  0
 23 24  1  0  0  0  0
 24 25  2  0  0  0  0
 25 26  1  0  0  0  0
 26 27  1  0  0  0  0
 27 28  1  0  0  0  0
 27 29  1  0  0  0  0
 27 30  1  0  0  0  0
 28 47  1  0  0  0  0
 28 48  1  0  0  0  0
 28 49  1  0  0  0  0
 29 50  1  0  0  0  0
 29 51  1  0  0  0  0
 29 52  1  0  0  0  0
 30 53  1  0  0  0  0
 30 54  1  0  0  0  0
 30 55  1  0  0  0  0
M  END
