4x0u_ligand
 OpenBabel08222323353D

 28 28  0  0  0  0  0  0  0  0999 V2000
   60.7980   68.4800   12.9810 C   0  0  0  0  0  0  0  0  0  0  0  0
   60.1310   69.4510   13.3040 O   0  0  0  0  0  0  0  0  0  0  0  0
   61.7650   68.6400   11.8410 C   0  0  0  0  0  0  0  0  0  0  0  0
   62.3140   69.8950   11.5950 C   0  0  0  0  0  0  0  0  0  0  0  0
   63.2090   70.0730   10.5430 C   0  0  0  0  0  0  0  0  0  0  0  0
   63.5640   69.0030    9.7210 C   0  0  0  0  0  0  0  0  0  0  0  0
   63.0060   67.7480    9.9750 C   0  0  0  0  0  0  0  0  0  0  0  0
   62.1110   67.5650   11.0280 C   0  0  0  0  0  0  0  0  0  0  0  0
   64.4750   69.1930    8.6540 N   0  0  0  0  0  0  0  0  0  0  0  0
   64.9230   68.0680    7.8320 C   0  0  0  0  0  0  0  0  0  0  0  0
   63.9220   67.7410    6.7400 C   0  0  0  0  0  0  0  0  0  0  0  0
   64.9980   70.5290    8.3610 C   0  0  0  0  0  0  0  0  0  0  0  0
   66.2430   70.8150    9.1820 C   0  0  0  0  0  0  0  0  0  0  0  0
   60.6955   67.5292   13.5019 H   0  0  0  0  0  0  0  0  0  0  0  0
   62.0443   70.7359   12.2237 H   0  0  0  0  0  0  0  0  0  0  0  0
   63.6344   71.0533   10.3609 H   0  0  0  0  0  0  0  0  0  0  0  0
   63.2721   66.9063    9.3458 H   0  0  0  0  0  0  0  0  0  0  0  0
   61.6848   66.5857   11.2134 H   0  0  0  0  0  0  0  0  0  0  0  0
   65.0511   67.1847    8.4750 H   0  0  0  0  0  0  0  0  0  0  0  0
   65.8861   68.3263    7.3677 H   0  0  0  0  0  0  0  0  0  0  0  0
   64.2923   66.8931    6.1451 H   0  0  0  0  0  0  0  0  0  0  0  0
   63.7915   68.6172    6.0879 H   0  0  0  0  0  0  0  0  0  0  0  0
   62.9564   67.4756    7.1952 H   0  0  0  0  0  0  0  0  0  0  0  0
   64.2286   71.2777    8.6008 H   0  0  0  0  0  0  0  0  0  0  0  0
   65.2494   70.5910    7.2919 H   0  0  0  0  0  0  0  0  0  0  0  0
   66.6156   71.8223    8.9442 H   0  0  0  0  0  0  0  0  0  0  0  0
   67.0181   70.0717    8.9438 H   0  0  0  0  0  0  0  0  0  0  0  0
   65.9972   70.7583   10.2527 H   0  0  0  0  0  0  0  0  0  0  0  0
  1  2  2  0  0  0  0
  1  3  1  0  0  0  0
  1 14  1  0  0  0  0
  3  4  2  0  0  0  0
  3  8  1  0  0  0  0
  4  5  1  0  0  0  0
  4 15  1  0  0  0  0
  5  6  2  0  0  0  0
  5 16  1  0  0  0  0
  6  7  1  0  0  0  0
  6  9  1  0  0  0  0
  7  8  2  0  0  0  0
  7 17  1  0  0  0  0
  8 18  1  0  0  0  0
  9 10  1  0  0  0  0
  9 12  1  0  0  0  0
 10 11  1  0  0  0  0
 10 19  1  0  0  0  0
 10 20  1  0  0  0  0
 11 21  1  0  0  0  0
 11 22  1  0  0  0  0
 11 23  1  0  0  0  0
 12 13  1  0  0  0  0
 12 24  1  0  0  0  0
 12 25  1  0  0  0  0
 13 26  1  0  0  0  0
 13 27  1  0  0  0  0
 13 28  1  0  0  0  0
M  END
