4x1f_ligand
 OpenBabel08222323353D

 46 49  0  0  1  0  0  0  0  0999 V2000
   13.2690   77.1610    0.4730 C   0  0  0  0  0  0  0  0  0  0  0  0
   13.4010   78.6440    0.7280 C   0  0  2  0  0  0  0  0  0  0  0  0
   12.7420   79.0240    2.0160 C   0  0  0  0  0  0  0  0  0  0  0  0
   11.2440   78.8180    1.9050 C   0  0  0  0  0  0  0  0  0  0  0  0
   10.6430   79.5090    0.7060 C   0  0  2  0  0  0  0  0  0  0  0  0
    9.2730   79.2850    0.6080 C   0  0  0  0  0  0  0  0  0  0  0  0
    8.5520   78.9650    1.7410 C   0  0  0  0  0  0  0  0  0  0  0  0
    7.2040   78.7350    1.7440 C   0  0  0  0  0  0  0  0  0  0  0  0
    6.5260   78.8350    0.5600 C   0  0  0  0  0  0  0  0  0  0  0  0
    5.2110   78.6280    0.5720 O   0  0  0  0  0  0  0  0  0  0  0  0
    7.2330   79.1720   -0.5960 C   0  0  0  0  0  0  0  0  0  0  0  0
    8.5990   79.3820   -0.5770 C   0  0  0  0  0  0  0  0  0  0  0  0
    9.2450   79.7200   -1.7420 C   0  0  0  0  0  0  0  0  0  0  0  0
   10.7230   79.9960   -1.5960 C   0  0  0  0  0  0  0  0  0  0  0  0
   11.3420   79.1250   -0.5370 C   0  0  1  0  0  0  0  0  0  0  0  0
   12.7850   79.4680   -0.3430 C   0  0  2  0  0  0  0  0  0  0  0  0
   13.6610   79.1500   -1.4940 C   0  0  0  0  0  0  0  0  0  0  0  0
   15.0360   78.9360   -0.8920 C   0  0  0  0  0  0  0  0  0  0  0  0
   14.8580   79.0300    0.5780 C   0  0  2  0  0  0  0  0  0  0  0  0
   15.6590   78.1060    1.2190 O   0  0  0  0  0  0  0  0  0  0  0  0
   15.1180   80.3630    1.0080 C   0  0  0  0  0  0  0  0  0  0  0  0
   15.2670   81.2040    1.2690 C   0  0  0  0  0  0  0  0  0  0  0  0
   12.2153   76.8633    0.5780 H   0  0  0  0  0  0  0  0  0  0  0  0
   13.8806   76.6079    1.2010 H   0  0  0  0  0  0  0  0  0  0  0  0
   13.6149   76.9319   -0.5457 H   0  0  0  0  0  0  0  0  0  0  0  0
   12.9502   80.0817    2.2349 H   0  0  0  0  0  0  0  0  0  0  0  0
   13.1379   78.3966    2.8281 H   0  0  0  0  0  0  0  0  0  0  0  0
   10.7671   79.2139    2.8137 H   0  0  0  0  0  0  0  0  0  0  0  0
   11.0431   77.7394    1.8256 H   0  0  0  0  0  0  0  0  0  0  0  0
   10.7879   80.5905    0.8447 H   0  0  0  0  0  0  0  0  0  0  0  0
    9.0849   78.8919    2.6821 H   0  0  0  0  0  0  0  0  0  0  0  0
    6.6858   78.4799    2.6613 H   0  0  0  0  0  0  0  0  0  0  0  0
    4.8679   78.7274   -0.3083 H   0  0  0  0  0  0  0  0  0  0  0  0
    6.6966   79.2715   -1.5327 H   0  0  0  0  0  0  0  0  0  0  0  0
    8.7675   80.6245   -2.1469 H   0  0  0  0  0  0  0  0  0  0  0  0
    9.1216   78.8903   -2.4536 H   0  0  0  0  0  0  0  0  0  0  0  0
   10.8644   81.0512   -1.3192 H   0  0  0  0  0  0  0  0  0  0  0  0
   11.2205   79.7991   -2.5571 H   0  0  0  0  0  0  0  0  0  0  0  0
   11.2194   78.0574   -0.7721 H   0  0  0  0  0  0  0  0  0  0  0  0
   12.8531   80.5388   -0.1006 H   0  0  0  0  0  0  0  0  0  0  0  0
   13.6779   79.9852   -2.2096 H   0  0  0  0  0  0  0  0  0  0  0  0
   13.3154   78.2381   -2.0028 H   0  0  0  0  0  0  0  0  0  0  0  0
   15.7320   79.7121   -1.2431 H   0  0  0  0  0  0  0  0  0  0  0  0
   15.4236   77.9441   -1.1674 H   0  0  0  0  0  0  0  0  0  0  0  0
   16.5690   78.2751    1.0053 H   0  0  0  0  0  0  0  0  0  0  0  0
   15.4432   82.1984    1.5776 H   0  0  0  0  0  0  0  0  0  0  0  0
  1 23  1  0  0  0  0
  1 24  1  0  0  0  0
  1 25  1  0  0  0  0
  2  1  1  6  0  0  0
  2  3  1  0  0  0  0
  2 16  1  0  0  0  0
  2 19  1  0  0  0  0
  3  4  1  0  0  0  0
  3 26  1  0  0  0  0
  3 27  1  0  0  0  0
  4  5  1  0  0  0  0
  4 28  1  0  0  0  0
  4 29  1  0  0  0  0
  5  6  1  0  0  0  0
  5 15  1  0  0  0  0
  5 30  1  1  0  0  0
  6  7  2  0  0  0  0
  6 12  1  0  0  0  0
  7  8  1  0  0  0  0
  7 31  1  0  0  0  0
  8  9  2  0  0  0  0
  8 32  1  0  0  0  0
  9 10  1  0  0  0  0
  9 11  1  0  0  0  0
 10 33  1  0  0  0  0
 11 12  2  0  0  0  0
 11 34  1  0  0  0  0
 12 13  1  0  0  0  0
 13 14  1  0  0  0  0
 13 35  1  0  0  0  0
 13 36  1  0  0  0  0
 14 15  1  0  0  0  0
 14 37  1  0  0  0  0
 14 38  1  0  0  0  0
 15 16  1  0  0  0  0
 15 39  1  6  0  0  0
 16 17  1  0  0  0  0
 16 40  1  1  0  0  0
 17 18  1  0  0  0  0
 17 41  1  0  0  0  0
 17 42  1  0  0  0  0
 18 19  1  0  0  0  0
 18 43  1  0  0  0  0
 18 44  1  0  0  0  0
 19 20  1  0  0  0  0
 19 21  1  1  0  0  0
 20 45  1  0  0  0  0
 21 22  3  0  0  0  0
 22 46  1  0  0  0  0
M  END
