4x1p_ligand
 OpenBabel08222323353D

144147  0  0  1  0  0  0  0  0999 V2000
   26.5610   21.8380  -28.6560 N   0  3  0  0  0  0  0  0  0  0  0  0
   27.2560   21.1840  -27.4930 C   0  0  2  0  0  0  0  0  0  0  0  0
   26.4350   21.0520  -26.1790 C   0  0  0  0  0  0  0  0  0  0  0  0
   26.0630   19.9270  -25.8150 O   0  0  0  0  0  0  0  0  0  0  0  0
   28.6530   21.8230  -27.2360 C   0  0  0  0  0  0  0  0  0  0  0  0
   29.6570   21.2300  -25.8040 S   0  0  0  0  0  0  0  0  0  0  0  0
   26.1460   22.1900  -25.4890 N   0  0  0  0  0  0  0  0  0  0  0  0
   25.7740   22.2720  -24.0590 C   0  0  2  0  0  0  0  0  0  0  0  0
   25.3200   20.9550  -23.4020 C   0  0  0  0  0  0  0  0  0  0  0  0
   24.5390   20.2350  -24.0210 O   0  0  0  0  0  0  0  0  0  0  0  0
   24.6470   23.3210  -24.0780 C   0  0  0  0  0  0  0  0  0  0  0  0
   25.1070   24.2950  -25.1290 C   0  0  0  0  0  0  0  0  0  0  0  0
   25.9200   23.5030  -26.1450 C   0  0  0  0  0  0  0  0  0  0  0  0
   25.7250   20.6150  -22.1680 N   0  0  0  0  0  0  0  0  0  0  0  0
   26.3330   21.4180  -21.0630 C   0  0  2  0  0  0  0  0  0  0  0  0
   25.5540   20.9860  -19.7990 C   0  0  0  0  0  0  0  0  0  0  0  0
   24.4920   21.5460  -19.4780 O   0  0  0  0  0  0  0  0  0  0  0  0
   26.2380   22.9170  -21.2570 C   0  0  0  0  0  0  0  0  0  0  0  0
   26.0540   19.9600  -19.1130 N   0  0  0  0  0  0  0  0  0  0  0  0
   25.3260   19.3090  -17.9950 C   0  0  2  0  0  0  0  0  0  0  0  0
   26.3800   19.1290  -16.9220 C   0  0  0  0  0  0  0  0  0  0  0  0
   27.5440   19.2370  -17.2220 O   0  0  0  0  0  0  0  0  0  0  0  0
   24.7820   17.9310  -18.4170 C   0  0  0  0  0  0  0  0  0  0  0  0
   23.6100   18.0100  -19.3420 C   0  0  0  0  0  0  0  0  0  0  0  0
   22.3130   18.1090  -18.8300 C   0  0  0  0  0  0  0  0  0  0  0  0
   23.7910   18.0200  -20.7460 C   0  0  0  0  0  0  0  0  0  0  0  0
   21.2150   18.2290  -19.6710 C   0  0  0  0  0  0  0  0  0  0  0  0
   22.7020   18.1270  -21.6080 C   0  0  0  0  0  0  0  0  0  0  0  0
   21.4150   18.2310  -21.0630 C   0  0  0  0  0  0  0  0  0  0  0  0
   20.3150   18.3350  -21.8940 O   0  0  0  0  0  0  0  0  0  0  0  0
   25.9860   18.9600  -15.6660 N   0  0  0  0  0  0  0  0  0  0  0  0
   27.0150   18.6910  -14.6400 C   0  0  2  0  0  0  0  0  0  0  0  0
   27.5170   17.2580  -14.6450 C   0  0  0  0  0  0  0  0  0  0  0  0
   26.7070   16.3040  -14.6440 O   0  0  0  0  0  0  0  0  0  0  0  0
   26.4870   19.0970  -13.2850 C   0  0  0  0  0  0  0  0  0  0  0  0
   27.5290   18.8640  -12.3750 O   0  0  0  0  0  0  0  0  0  0  0  0
   29.0380   17.0660  -14.6710 N   0  0  0  0  0  0  0  0  0  0  0  0
   29.0910   15.6440  -14.3780 C   0  0  2  0  0  0  0  0  0  0  0  0
   29.1020   15.2460  -12.8850 C   0  0  0  0  0  0  0  0  0  0  0  0
   29.3600   14.6230  -15.4780 C   0  0  1  0  0  0  0  0  0  0  0  0
   29.3100   13.3630  -14.8670 O   0  0  0  0  0  0  0  0  0  0  0  0
   28.8320   15.3110  -16.7860 N   0  3  0  0  0  0  0  0  0  0  0  0
   28.9140   14.0710  -17.6440 C   0  0  2  0  0  0  0  0  0  0  0  0
   30.0660   14.2040  -18.6670 C   0  0  0  0  0  0  0  0  0  0  0  0
   31.2680   13.9350  -18.3570 O   0  0  0  0  0  0  0  0  0  0  0  0
   27.5220   13.8100  -18.2420 C   0  0  0  0  0  0  0  0  0  0  0  0
   27.4090   12.6430  -19.2380 C   0  0  0  0  0  0  0  0  0  0  0  0
   28.1060   11.4190  -19.0360 C   0  0  0  0  0  0  0  0  0  0  0  0
   26.5760   12.7720  -20.3820 C   0  0  0  0  0  0  0  0  0  0  0  0
   27.9940   10.3790  -19.9570 C   0  0  0  0  0  0  0  0  0  0  0  0
   26.4540   11.7420  -21.2910 C   0  0  0  0  0  0  0  0  0  0  0  0
   27.1450   10.5410  -21.0620 C   0  0  0  0  0  0  0  0  0  0  0  0
   27.0110    9.4890  -21.9810 O   0  0  0  0  0  0  0  0  0  0  0  0
   29.7290   14.6260  -19.8720 N   0  0  0  0  0  0  0  0  0  0  0  0
   30.7490   14.9800  -20.8650 C   0  0  2  0  0  0  0  0  0  0  0  0
   30.9390   16.5050  -21.0520 C   0  0  0  0  0  0  0  0  0  0  0  0
   30.1630   17.3410  -20.5390 O   0  0  0  0  0  0  0  0  0  0  0  0
   30.4020   14.3460  -22.2190 C   0  0  0  0  0  0  0  0  0  0  0  0
   29.9510   12.8900  -22.1210 C   0  0  0  0  0  0  0  0  0  0  0  0
   29.1920   12.4800  -23.3940 C   0  0  0  0  0  0  0  0  0  0  0  0
   31.1270   11.9230  -21.8700 C   0  0  0  0  0  0  0  0  0  0  0  0
   31.9690   16.8680  -21.8090 N   0  0  0  0  0  0  0  0  0  0  0  0
   32.0950   18.2770  -22.1680 C   0  0  2  0  0  0  0  0  0  0  0  0
   30.7840   18.7350  -22.8650 C   0  0  0  0  0  0  0  0  0  0  0  0
   30.2020   19.7810  -22.4860 O   0  0  0  0  0  0  0  0  0  0  0  0
   33.3030   18.4960  -23.1070 C   0  0  0  0  0  0  0  0  0  0  0  0
   33.8850   19.9080  -23.0120 C   0  0  0  0  0  0  0  0  0  0  0  0
   33.3140   20.8020  -22.3370 O   0  5  0  0  0  0  0  0  0  0  0  0
   34.9760   20.1160  -23.5820 O   0  0  0  0  0  0  0  0  0  0  0  0
   30.4370   17.9700  -23.9130 N   0  0  0  0  0  0  0  0  0  0  0  0
   29.2520   18.1320  -24.7570 C   0  0  2  0  0  0  0  0  0  0  0  0
   28.4070   16.8880  -24.6440 C   0  0  0  0  0  0  0  0  0  0  0  0
   28.8030   15.8530  -25.1540 O   0  5  0  0  0  0  0  0  0  0  0  0
   29.6920   18.2550  -26.2210 C   0  0  0  0  0  0  0  0  0  0  0  0
   30.7880   19.6770  -26.5090 S   0  0  0  0  0  0  0  0  0  0  0  0
   27.3460   16.9440  -24.0450 O   0  0  0  0  0  0  0  0  0  0  0  0
   27.1854   21.8682  -29.4468 H   0  0  0  0  0  0  0  0  0  0  0  0
   26.2935   22.7764  -28.4031 H   0  0  0  0  0  0  0  0  0  0  0  0
   25.7385   21.3076  -28.8974 H   0  0  0  0  0  0  0  0  0  0  0  0
   27.4477   20.1503  -27.8164 H   0  0  0  0  0  0  0  0  0  0  0  0
   28.4930   22.9019  -27.0930 H   0  0  0  0  0  0  0  0  0  0  0  0
   29.2547   21.6584  -28.1420 H   0  0  0  0  0  0  0  0  0  0  0  0
   26.6317   22.6485  -23.4823 H   0  0  0  0  0  0  0  0  0  0  0  0
   24.5487   23.8132  -23.0992 H   0  0  0  0  0  0  0  0  0  0  0  0
   23.6862   22.8637  -24.3566 H   0  0  0  0  0  0  0  0  0  0  0  0
   25.7317   25.0766  -24.6721 H   0  0  0  0  0  0  0  0  0  0  0  0
   24.2388   24.7595  -25.6195 H   0  0  0  0  0  0  0  0  0  0  0  0
   25.3580   23.3789  -27.0824 H   0  0  0  0  0  0  0  0  0  0  0  0
   26.8766   24.0040  -26.3545 H   0  0  0  0  0  0  0  0  0  0  0  0
   25.5966   19.6481  -21.9476 H   0  0  0  0  0  0  0  0  0  0  0  0
   27.3956   21.1521  -20.9619 H   0  0  0  0  0  0  0  0  0  0  0  0
   26.7071   23.4277  -20.4031 H   0  0  0  0  0  0  0  0  0  0  0  0
   25.1804   23.2117  -21.3246 H   0  0  0  0  0  0  0  0  0  0  0  0
   26.7576   23.2004  -22.1842 H   0  0  0  0  0  0  0  0  0  0  0  0
   26.9584   19.6133  -19.3616 H   0  0  0  0  0  0  0  0  0  0  0  0
   24.5008   19.9442  -17.6408 H   0  0  0  0  0  0  0  0  0  0  0  0
   24.4752   17.3858  -17.5122 H   0  0  0  0  0  0  0  0  0  0  0  0
   25.5878   17.3785  -18.9225 H   0  0  0  0  0  0  0  0  0  0  0  0
   22.1618   18.0918  -17.7567 H   0  0  0  0  0  0  0  0  0  0  0  0
   24.7915   17.9433  -21.1562 H   0  0  0  0  0  0  0  0  0  0  0  0
   20.2161   18.3200  -19.2599 H   0  0  0  0  0  0  0  0  0  0  0  0
   22.8475   18.1298  -22.6822 H   0  0  0  0  0  0  0  0  0  0  0  0
   19.5266   18.3965  -21.3676 H   0  0  0  0  0  0  0  0  0  0  0  0
   25.0181   19.0133  -15.4203 H   0  0  0  0  0  0  0  0  0  0  0  0
   27.8795   19.3321  -14.8671 H   0  0  0  0  0  0  0  0  0  0  0  0
   25.6074   18.4916  -13.0211 H   0  0  0  0  0  0  0  0  0  0  0  0
   26.2122   20.1621  -13.2859 H   0  0  0  0  0  0  0  0  0  0  0  0
   27.2448   19.1054  -11.5012 H   0  0  0  0  0  0  0  0  0  0  0  0
   29.7731   17.7227  -14.8392 H   0  0  0  0  0  0  0  0  0  0  0  0
   28.0017   15.5199  -14.4671 H   0  0  0  0  0  0  0  0  0  0  0  0
   29.1432   14.1502  -12.7980 H   0  0  0  0  0  0  0  0  0  0  0  0
   28.1878   15.6182  -12.3995 H   0  0  0  0  0  0  0  0  0  0  0  0
   29.9828   15.6861  -12.3947 H   0  0  0  0  0  0  0  0  0  0  0  0
   30.4409   14.6739  -15.6756 H   0  0  0  0  0  0  0  0  0  0  0  0
   29.7048   12.7177  -15.4417 H   0  0  0  0  0  0  0  0  0  0  0  0
   29.4347   16.0513  -17.1095 H   0  0  0  0  0  0  0  0  0  0  0  0
   27.8912   15.6604  -16.6921 H   0  0  0  0  0  0  0  0  0  0  0  0
   29.1579   13.2160  -16.9964 H   0  0  0  0  0  0  0  0  0  0  0  0
   27.2054   14.7255  -18.7631 H   0  0  0  0  0  0  0  0  0  0  0  0
   26.8336   13.6056  -17.4088 H   0  0  0  0  0  0  0  0  0  0  0  0
   28.7295   11.2944  -18.1581 H   0  0  0  0  0  0  0  0  0  0  0  0
   26.0283   13.6936  -20.5426 H   0  0  0  0  0  0  0  0  0  0  0  0
   28.5535    9.4604  -19.8218 H   0  0  0  0  0  0  0  0  0  0  0  0
   25.8324   11.8580  -22.1714 H   0  0  0  0  0  0  0  0  0  0  0  0
   27.5335    8.7498  -21.6928 H   0  0  0  0  0  0  0  0  0  0  0  0
   28.7614   14.7057  -20.1118 H   0  0  0  0  0  0  0  0  0  0  0  0
   31.7068   14.5635  -20.5199 H   0  0  0  0  0  0  0  0  0  0  0  0
   31.2939   14.3902  -22.8613 H   0  0  0  0  0  0  0  0  0  0  0  0
   29.5906   14.9301  -22.6776 H   0  0  0  0  0  0  0  0  0  0  0  0
   29.2613   12.8091  -21.2679 H   0  0  0  0  0  0  0  0  0  0  0  0
   28.8738   11.4305  -23.3091 H   0  0  0  0  0  0  0  0  0  0  0  0
   29.8516   12.5937  -24.2669 H   0  0  0  0  0  0  0  0  0  0  0  0
   28.3076   13.1225  -23.5166 H   0  0  0  0  0  0  0  0  0  0  0  0
   31.6622   12.2256  -20.9579 H   0  0  0  0  0  0  0  0  0  0  0  0
   31.8162   11.9537  -22.7267 H   0  0  0  0  0  0  0  0  0  0  0  0
   30.7409   10.9004  -21.7464 H   0  0  0  0  0  0  0  0  0  0  0  0
   32.6385   16.1951  -22.1236 H   0  0  0  0  0  0  0  0  0  0  0  0
   32.2446   18.8695  -21.2534 H   0  0  0  0  0  0  0  0  0  0  0  0
   32.9783   18.3196  -24.1431 H   0  0  0  0  0  0  0  0  0  0  0  0
   34.0892   17.7741  -22.8411 H   0  0  0  0  0  0  0  0  0  0  0  0
   31.0502   17.2132  -24.1396 H   0  0  0  0  0  0  0  0  0  0  0  0
   28.6806   19.0199  -24.4484 H   0  0  0  0  0  0  0  0  0  0  0  0
   28.7961   18.3687  -26.8491 H   0  0  0  0  0  0  0  0  0  0  0  0
   30.2256   17.3364  -26.5062 H   0  0  0  0  0  0  0  0  0  0  0  0
  1  2  1  0  0  0  0
  1 77  1  0  0  0  0
  1 78  1  0  0  0  0
  1 79  1  0  0  0  0
  2  3  1  0  0  0  0
  2  5  1  0  0  0  0
  2 80  1  6  0  0  0
  3  4  2  0  0  0  0
  3  7  1  0  0  0  0
  5  6  1  0  0  0  0
  5 81  1  0  0  0  0
  5 82  1  0  0  0  0
  6 75  1  0  0  0  0
  7  8  1  0  0  0  0
  7 13  1  0  0  0  0
  8  9  1  0  0  0  0
  8 11  1  0  0  0  0
  8 83  1  1  0  0  0
  9 10  2  0  0  0  0
  9 14  1  0  0  0  0
 11 12  1  0  0  0  0
 11 84  1  0  0  0  0
 11 85  1  0  0  0  0
 12 13  1  0  0  0  0
 12 86  1  0  0  0  0
 12 87  1  0  0  0  0
 13 88  1  0  0  0  0
 13 89  1  0  0  0  0
 14 15  1  0  0  0  0
 14 90  1  0  0  0  0
 15 16  1  0  0  0  0
 15 18  1  0  0  0  0
 15 91  1  1  0  0  0
 16 17  2  0  0  0  0
 16 19  1  0  0  0  0
 18 92  1  0  0  0  0
 18 93  1  0  0  0  0
 18 94  1  0  0  0  0
 19 20  1  0  0  0  0
 19 95  1  0  0  0  0
 20 21  1  0  0  0  0
 20 23  1  0  0  0  0
 20 96  1  1  0  0  0
 21 22  2  0  0  0  0
 21 31  1  0  0  0  0
 23 24  1  0  0  0  0
 23 97  1  0  0  0  0
 23 98  1  0  0  0  0
 24 25  2  0  0  0  0
 24 26  1  0  0  0  0
 25 27  1  0  0  0  0
 25 99  1  0  0  0  0
 26 28  2  0  0  0  0
 26100  1  0  0  0  0
 27 29  2  0  0  0  0
 27101  1  0  0  0  0
 28 29  1  0  0  0  0
 28102  1  0  0  0  0
 29 30  1  0  0  0  0
 30103  1  0  0  0  0
 31 32  1  0  0  0  0
 31104  1  0  0  0  0
 32 33  1  0  0  0  0
 32 35  1  0  0  0  0
 32105  1  6  0  0  0
 33 34  2  0  0  0  0
 33 37  1  0  0  0  0
 35 36  1  0  0  0  0
 35106  1  0  0  0  0
 35107  1  0  0  0  0
 36108  1  0  0  0  0
 37 38  1  0  0  0  0
 37109  1  0  0  0  0
 38 39  1  0  0  0  0
 38 40  1  0  0  0  0
 38110  1  6  0  0  0
 39111  1  0  0  0  0
 39112  1  0  0  0  0
 39113  1  0  0  0  0
 40 41  1  0  0  0  0
 40 42  1  0  0  0  0
 40114  1  6  0  0  0
 41115  1  0  0  0  0
 42 43  1  0  0  0  0
 42116  1  0  0  0  0
 42117  1  0  0  0  0
 43 44  1  0  0  0  0
 43 46  1  0  0  0  0
 43118  1  1  0  0  0
 44 45  2  0  0  0  0
 44 54  1  0  0  0  0
 46 47  1  0  0  0  0
 46119  1  0  0  0  0
 46120  1  0  0  0  0
 47 48  2  0  0  0  0
 47 49  1  0  0  0  0
 48 50  1  0  0  0  0
 48121  1  0  0  0  0
 49 51  2  0  0  0  0
 49122  1  0  0  0  0
 50 52  2  0  0  0  0
 50123  1  0  0  0  0
 51 52  1  0  0  0  0
 51124  1  0  0  0  0
 52 53  1  0  0  0  0
 53125  1  0  0  0  0
 54 55  1  0  0  0  0
 54126  1  0  0  0  0
 55 56  1  0  0  0  0
 55 58  1  0  0  0  0
 55127  1  1  0  0  0
 56 57  2  0  0  0  0
 56 62  1  0  0  0  0
 58 59  1  0  0  0  0
 58128  1  0  0  0  0
 58129  1  0  0  0  0
 59 60  1  0  0  0  0
 59 61  1  0  0  0  0
 59130  1  0  0  0  0
 60131  1  0  0  0  0
 60132  1  0  0  0  0
 60133  1  0  0  0  0
 61134  1  0  0  0  0
 61135  1  0  0  0  0
 61136  1  0  0  0  0
 62 63  1  0  0  0  0
 62137  1  0  0  0  0
 63 64  1  0  0  0  0
 63 66  1  0  0  0  0
 63138  1  1  0  0  0
 64 65  2  0  0  0  0
 64 70  1  0  0  0  0
 66 67  1  0  0  0  0
 66139  1  0  0  0  0
 66140  1  0  0  0  0
 67 68  1  0  0  0  0
 67 69  2  0  0  0  0
 70 71  1  0  0  0  0
 70141  1  0  0  0  0
 71 72  1  0  0  0  0
 71 74  1  0  0  0  0
 71142  1  1  0  0  0
 72 73  1  0  0  0  0
 72 76  2  0  0  0  0
 74 75  1  0  0  0  0
 74143  1  0  0  0  0
 74144  1  0  0  0  0
M  CHG  4   1   1  42   1  68  -1  73  -1
M  END
