4x1s_ligand
 OpenBabel08222323353D

139142  0  0  1  0  0  0  0  0999 V2000
  -25.4800   -6.1940    1.1280 N   0  3  0  0  0  0  0  0  0  0  0  0
  -26.0250   -7.4320    0.6190 C   0  0  2  0  0  0  0  0  0  0  0  0
  -27.3990   -7.6330    1.1990 C   0  0  0  0  0  0  0  0  0  0  0  0
  -27.5640   -7.5750    2.4020 O   0  0  0  0  0  0  0  0  0  0  0  0
  -25.1370   -8.6080    0.9990 C   0  0  0  0  0  0  0  0  0  0  0  0
  -23.5120   -8.6860    0.2220 S   0  0  0  0  0  0  0  0  0  0  0  0
  -28.4250   -7.8830    0.2750 N   0  0  0  0  0  0  0  0  0  0  0  0
  -29.7070   -8.2430    0.9040 C   0  0  2  0  0  0  0  0  0  0  0  0
  -29.6430   -9.5940    1.6090 C   0  0  0  0  0  0  0  0  0  0  0  0
  -28.8530  -10.4220    1.2420 O   0  0  0  0  0  0  0  0  0  0  0  0
  -30.6710   -8.3380   -0.2660 C   0  0  0  0  0  0  0  0  0  0  0  0
  -30.1020   -7.4910   -1.3050 C   0  0  0  0  0  0  0  0  0  0  0  0
  -28.6880   -7.8770   -1.2430 C   0  0  0  0  0  0  0  0  0  0  0  0
  -30.4690   -9.7850    2.6220 N   0  0  0  0  0  0  0  0  0  0  0  0
  -30.4040  -10.9590    3.4660 C   0  0  2  0  0  0  0  0  0  0  0  0
  -30.5620  -12.2530    2.7170 C   0  0  0  0  0  0  0  0  0  0  0  0
  -29.9850  -13.2630    3.0870 O   0  0  0  0  0  0  0  0  0  0  0  0
  -31.4630  -10.8820    4.5260 C   0  0  0  0  0  0  0  0  0  0  0  0
  -31.3830  -12.2340    1.6890 N   0  0  0  0  0  0  0  0  0  0  0  0
  -31.6140  -13.4440    0.9060 C   0  0  2  0  0  0  0  0  0  0  0  0
  -30.7090  -13.5340   -0.3510 C   0  0  0  0  0  0  0  0  0  0  0  0
  -31.0110  -14.2210   -1.3180 O   0  0  0  0  0  0  0  0  0  0  0  0
  -33.1030  -13.5780    0.5690 C   0  0  0  0  0  0  0  0  0  0  0  0
  -34.0120  -13.5000    1.7940 C   0  0  0  0  0  0  0  0  0  0  0  0
  -33.5220  -13.8080    3.0550 C   0  0  0  0  0  0  0  0  0  0  0  0
  -35.3510  -13.1690    1.6840 C   0  0  0  0  0  0  0  0  0  0  0  0
  -34.3260  -13.7800    4.1710 C   0  0  0  0  0  0  0  0  0  0  0  0
  -36.1650  -13.1390    2.7950 C   0  0  0  0  0  0  0  0  0  0  0  0
  -35.6470  -13.4360    4.0540 C   0  0  0  0  0  0  0  0  0  0  0  0
  -36.4330  -13.4310    5.2020 O   0  0  0  0  0  0  0  0  0  0  0  0
  -29.6300  -12.7700   -0.3820 N   0  0  0  0  0  0  0  0  0  0  0  0
  -28.7860  -12.8780   -1.5450 C   0  0  2  0  0  0  0  0  0  0  0  0
  -28.1970  -14.2660   -1.5890 C   0  0  0  0  0  0  0  0  0  0  0  0
  -28.0740  -14.8930   -0.5710 O   0  0  0  0  0  0  0  0  0  0  0  0
  -27.6590  -11.8800   -1.5750 C   0  0  0  0  0  0  0  0  0  0  0  0
  -26.9590  -12.0290   -2.7950 O   0  0  0  0  0  0  0  0  0  0  0  0
  -28.0310  -14.8240   -2.8730 N   0  0  0  0  0  0  0  0  0  0  0  0
  -27.0320  -15.7950   -3.3900 C   0  0  2  0  0  0  0  0  0  0  0  0
  -26.0120  -15.3970   -4.1660 C   0  0  0  0  0  0  0  0  0  0  0  0
  -25.3730  -16.1480   -4.7770 O   0  0  0  0  0  0  0  0  0  0  0  0
  -27.7480  -16.8070   -4.2780 C   0  0  0  0  0  0  0  0  0  0  0  0
  -25.4140  -14.1090   -4.1240 N   0  0  0  0  0  0  0  0  0  0  0  0
  -24.2450  -13.6050   -4.7230 C   0  0  2  0  0  0  0  0  0  0  0  0
  -23.0960  -14.1420   -3.9300 C   0  0  0  0  0  0  0  0  0  0  0  0
  -23.0770  -14.0410   -2.7170 O   0  0  0  0  0  0  0  0  0  0  0  0
  -24.2710  -12.1160   -4.6590 C   0  0  0  0  0  0  0  0  0  0  0  0
  -23.1550  -11.4790   -5.3560 C   0  0  0  0  0  0  0  0  0  0  0  0
  -22.5390  -12.0850   -6.4120 C   0  0  0  0  0  0  0  0  0  0  0  0
  -22.7200  -10.2600   -4.9580 C   0  0  0  0  0  0  0  0  0  0  0  0
  -21.5110  -11.4800   -7.0400 C   0  0  0  0  0  0  0  0  0  0  0  0
  -21.6930   -9.6580   -5.5820 C   0  0  0  0  0  0  0  0  0  0  0  0
  -21.0990  -10.2770   -6.6110 C   0  0  0  0  0  0  0  0  0  0  0  0
  -20.0880   -9.6400   -7.2090 O   0  0  0  0  0  0  0  0  0  0  0  0
  -22.1390  -14.7380   -4.6080 N   0  0  0  0  0  0  0  0  0  0  0  0
  -21.0700  -15.3850   -3.9100 C   0  0  2  0  0  0  0  0  0  0  0  0
  -20.1730  -14.4400   -3.1270 C   0  0  0  0  0  0  0  0  0  0  0  0
  -19.4080  -14.8790   -2.2900 O   0  0  0  0  0  0  0  0  0  0  0  0
  -20.2730  -16.2330   -4.8430 C   0  0  0  0  0  0  0  0  0  0  0  0
  -19.3760  -15.4120   -5.6780 C   0  0  0  0  0  0  0  0  0  0  0  0
  -17.9900  -15.4460   -5.0610 C   0  0  0  0  0  0  0  0  0  0  0  0
  -19.4400  -16.1610   -6.9680 C   0  0  0  0  0  0  0  0  0  0  0  0
  -20.2440  -13.1510   -3.4410 N   0  0  0  0  0  0  0  0  0  0  0  0
  -19.4200  -12.1730   -2.7560 C   0  0  2  0  0  0  0  0  0  0  0  0
  -20.1180  -11.5370   -1.5820 C   0  0  0  0  0  0  0  0  0  0  0  0
  -19.6610  -10.5250   -1.0810 O   0  0  0  0  0  0  0  0  0  0  0  0
  -18.9400  -11.1170   -3.7110 C   0  0  0  0  0  0  0  0  0  0  0  0
  -21.2140  -12.1390   -1.1560 N   0  0  0  0  0  0  0  0  0  0  0  0
  -21.9800  -11.6740   -0.0240 C   0  0  2  0  0  0  0  0  0  0  0  0
  -21.7830  -12.6070    1.1680 C   0  0  0  0  0  0  0  0  0  0  0  0
  -21.1620  -13.6520    1.0650 O   0  5  0  0  0  0  0  0  0  0  0  0
  -23.4610  -11.5860   -0.3610 C   0  0  0  0  0  0  0  0  0  0  0  0
  -23.9860  -10.0580   -1.1300 S   0  0  0  0  0  0  0  0  0  0  0  0
  -22.2390  -12.3420    2.2680 O   0  0  0  0  0  0  0  0  0  0  0  0
  -24.5588   -6.0499    0.7451 H   0  0  0  0  0  0  0  0  0  0  0  0
  -25.4225   -6.2404    2.1333 H   0  0  0  0  0  0  0  0  0  0  0  0
  -26.0785   -5.4283    0.8606 H   0  0  0  0  0  0  0  0  0  0  0  0
  -26.0947   -7.3733   -0.4772 H   0  0  0  0  0  0  0  0  0  0  0  0
  -25.6759   -9.5302    0.7360 H   0  0  0  0  0  0  0  0  0  0  0  0
  -24.9835   -8.5707    2.0876 H   0  0  0  0  0  0  0  0  0  0  0  0
  -30.0205   -7.4676    1.6184 H   0  0  0  0  0  0  0  0  0  0  0  0
  -31.6671   -7.9733    0.0253 H   0  0  0  0  0  0  0  0  0  0  0  0
  -30.7493   -9.3776   -0.6169 H   0  0  0  0  0  0  0  0  0  0  0  0
  -30.2392   -6.4240   -1.0756 H   0  0  0  0  0  0  0  0  0  0  0  0
  -30.5379   -7.7133   -2.2902 H   0  0  0  0  0  0  0  0  0  0  0  0
  -28.5259   -8.8730   -1.6809 H   0  0  0  0  0  0  0  0  0  0  0  0
  -28.0502   -7.1425   -1.7564 H   0  0  0  0  0  0  0  0  0  0  0  0
  -31.1650   -9.0928    2.8128 H   0  0  0  0  0  0  0  0  0  0  0  0
  -29.4175  -10.9677    3.9525 H   0  0  0  0  0  0  0  0  0  0  0  0
  -31.4088  -11.7764    5.1641 H   0  0  0  0  0  0  0  0  0  0  0  0
  -32.4539  -10.8298    4.0513 H   0  0  0  0  0  0  0  0  0  0  0  0
  -31.3027   -9.9834    5.1399 H   0  0  0  0  0  0  0  0  0  0  0  0
  -31.8515  -11.3856    1.4427 H   0  0  0  0  0  0  0  0  0  0  0  0
  -31.3483  -14.2982    1.5461 H   0  0  0  0  0  0  0  0  0  0  0  0
  -33.2632  -14.5489    0.0774 H   0  0  0  0  0  0  0  0  0  0  0  0
  -33.3785  -12.7674   -0.1216 H   0  0  0  0  0  0  0  0  0  0  0  0
  -32.4778  -14.0779    3.1638 H   0  0  0  0  0  0  0  0  0  0  0  0
  -35.7649  -12.9302    0.7110 H   0  0  0  0  0  0  0  0  0  0  0  0
  -33.9146  -14.0299    5.1423 H   0  0  0  0  0  0  0  0  0  0  0  0
  -37.2131  -12.8832    2.6893 H   0  0  0  0  0  0  0  0  0  0  0  0
  -35.8967  -13.6579    5.9526 H   0  0  0  0  0  0  0  0  0  0  0  0
  -29.4098  -12.1457    0.3675 H   0  0  0  0  0  0  0  0  0  0  0  0
  -29.4094  -12.7198   -2.4374 H   0  0  0  0  0  0  0  0  0  0  0  0
  -26.9775  -12.0646   -0.7315 H   0  0  0  0  0  0  0  0  0  0  0  0
  -28.0646  -10.8601   -1.5023 H   0  0  0  0  0  0  0  0  0  0  0  0
  -27.5518  -11.8709   -3.5203 H   0  0  0  0  0  0  0  0  0  0  0  0
  -28.6983  -14.5140   -3.5502 H   0  0  0  0  0  0  0  0  0  0  0  0
  -26.6033  -16.2981   -2.5107 H   0  0  0  0  0  0  0  0  0  0  0  0
  -27.0193  -17.5328   -4.6680 H   0  0  0  0  0  0  0  0  0  0  0  0
  -28.2287  -16.2830   -5.1173 H   0  0  0  0  0  0  0  0  0  0  0  0
  -28.5124  -17.3352   -3.6893 H   0  0  0  0  0  0  0  0  0  0  0  0
  -25.9126  -13.4421   -3.5703 H   0  0  0  0  0  0  0  0  0  0  0  0
  -24.1734  -13.9328   -5.7706 H   0  0  0  0  0  0  0  0  0  0  0  0
  -24.2388  -11.8131   -3.6020 H   0  0  0  0  0  0  0  0  0  0  0  0
  -25.2096  -11.7651   -5.1126 H   0  0  0  0  0  0  0  0  0  0  0  0
  -22.8781  -13.0583   -6.7478 H   0  0  0  0  0  0  0  0  0  0  0  0
  -23.2060   -9.7636   -4.1259 H   0  0  0  0  0  0  0  0  0  0  0  0
  -21.0232  -11.9593   -7.8811 H   0  0  0  0  0  0  0  0  0  0  0  0
  -21.3493   -8.6828   -5.2564 H   0  0  0  0  0  0  0  0  0  0  0  0
  -20.3981   -8.8120   -7.5564 H   0  0  0  0  0  0  0  0  0  0  0  0
  -22.1584  -14.7390   -5.6078 H   0  0  0  0  0  0  0  0  0  0  0  0
  -21.5352  -16.0573   -3.1740 H   0  0  0  0  0  0  0  0  0  0  0  0
  -20.9601  -16.7907   -5.4963 H   0  0  0  0  0  0  0  0  0  0  0  0
  -19.6688  -16.9409   -4.2567 H   0  0  0  0  0  0  0  0  0  0  0  0
  -19.7241  -14.3742   -5.7866 H   0  0  0  0  0  0  0  0  0  0  0  0
  -17.3031  -14.8388   -5.6689 H   0  0  0  0  0  0  0  0  0  0  0  0
  -17.6291  -16.4845   -5.0270 H   0  0  0  0  0  0  0  0  0  0  0  0
  -18.0331  -15.0392   -4.0399 H   0  0  0  0  0  0  0  0  0  0  0  0
  -20.4612  -16.1066   -7.3733 H   0  0  0  0  0  0  0  0  0  0  0  0
  -19.1698  -17.2131   -6.7949 H   0  0  0  0  0  0  0  0  0  0  0  0
  -18.7363  -15.7151   -7.6863 H   0  0  0  0  0  0  0  0  0  0  0  0
  -20.8731  -12.8513   -4.1582 H   0  0  0  0  0  0  0  0  0  0  0  0
  -18.5376  -12.7025   -2.3675 H   0  0  0  0  0  0  0  0  0  0  0  0
  -18.3186  -10.3883   -3.1698 H   0  0  0  0  0  0  0  0  0  0  0  0
  -19.8055  -10.6030   -4.1545 H   0  0  0  0  0  0  0  0  0  0  0  0
  -18.3445  -11.5865   -4.5078 H   0  0  0  0  0  0  0  0  0  0  0  0
  -21.5280  -12.9555   -1.6406 H   0  0  0  0  0  0  0  0  0  0  0  0
  -21.6224  -10.6703    0.2493 H   0  0  0  0  0  0  0  0  0  0  0  0
  -24.0290  -11.7080    0.5730 H   0  0  0  0  0  0  0  0  0  0  0  0
  -23.7021  -12.4111   -1.0473 H   0  0  0  0  0  0  0  0  0  0  0  0
  1  2  1  0  0  0  0
  1 74  1  0  0  0  0
  1 75  1  0  0  0  0
  1 76  1  0  0  0  0
  2  3  1  0  0  0  0
  2  5  1  0  0  0  0
  2 77  1  6  0  0  0
  3  4  2  0  0  0  0
  3  7  1  0  0  0  0
  5  6  1  0  0  0  0
  5 78  1  0  0  0  0
  5 79  1  0  0  0  0
  6 72  1  0  0  0  0
  7  8  1  0  0  0  0
  7 13  1  0  0  0  0
  8  9  1  0  0  0  0
  8 11  1  0  0  0  0
  8 80  1  1  0  0  0
  9 10  2  0  0  0  0
  9 14  1  0  0  0  0
 11 12  1  0  0  0  0
 11 81  1  0  0  0  0
 11 82  1  0  0  0  0
 12 13  1  0  0  0  0
 12 83  1  0  0  0  0
 12 84  1  0  0  0  0
 13 85  1  0  0  0  0
 13 86  1  0  0  0  0
 14 15  1  0  0  0  0
 14 87  1  0  0  0  0
 15 16  1  0  0  0  0
 15 18  1  0  0  0  0
 15 88  1  1  0  0  0
 16 17  2  0  0  0  0
 16 19  1  0  0  0  0
 18 89  1  0  0  0  0
 18 90  1  0  0  0  0
 18 91  1  0  0  0  0
 19 20  1  0  0  0  0
 19 92  1  0  0  0  0
 20 21  1  0  0  0  0
 20 23  1  0  0  0  0
 20 93  1  1  0  0  0
 21 22  2  0  0  0  0
 21 31  1  0  0  0  0
 23 24  1  0  0  0  0
 23 94  1  0  0  0  0
 23 95  1  0  0  0  0
 24 25  2  0  0  0  0
 24 26  1  0  0  0  0
 25 27  1  0  0  0  0
 25 96  1  0  0  0  0
 26 28  2  0  0  0  0
 26 97  1  0  0  0  0
 27 29  2  0  0  0  0
 27 98  1  0  0  0  0
 28 29  1  0  0  0  0
 28 99  1  0  0  0  0
 29 30  1  0  0  0  0
 30100  1  0  0  0  0
 31 32  1  0  0  0  0
 31101  1  0  0  0  0
 32 33  1  0  0  0  0
 32 35  1  0  0  0  0
 32102  1  6  0  0  0
 33 34  2  0  0  0  0
 33 37  1  0  0  0  0
 35 36  1  0  0  0  0
 35103  1  0  0  0  0
 35104  1  0  0  0  0
 36105  1  0  0  0  0
 37 38  1  0  0  0  0
 37106  1  0  0  0  0
 38 39  1  0  0  0  0
 38 41  1  0  0  0  0
 38107  1  1  0  0  0
 39 40  2  0  0  0  0
 39 42  1  0  0  0  0
 41108  1  0  0  0  0
 41109  1  0  0  0  0
 41110  1  0  0  0  0
 42 43  1  0  0  0  0
 42111  1  0  0  0  0
 43 44  1  0  0  0  0
 43 46  1  0  0  0  0
 43112  1  6  0  0  0
 44 45  2  0  0  0  0
 44 54  1  0  0  0  0
 46 47  1  0  0  0  0
 46113  1  0  0  0  0
 46114  1  0  0  0  0
 47 48  2  0  0  0  0
 47 49  1  0  0  0  0
 48 50  1  0  0  0  0
 48115  1  0  0  0  0
 49 51  2  0  0  0  0
 49116  1  0  0  0  0
 50 52  2  0  0  0  0
 50117  1  0  0  0  0
 51 52  1  0  0  0  0
 51118  1  0  0  0  0
 52 53  1  0  0  0  0
 53119  1  0  0  0  0
 54 55  1  0  0  0  0
 54120  1  0  0  0  0
 55 56  1  0  0  0  0
 55 58  1  0  0  0  0
 55121  1  1  0  0  0
 56 57  2  0  0  0  0
 56 62  1  0  0  0  0
 58 59  1  0  0  0  0
 58122  1  0  0  0  0
 58123  1  0  0  0  0
 59 60  1  0  0  0  0
 59 61  1  0  0  0  0
 59124  1  0  0  0  0
 60125  1  0  0  0  0
 60126  1  0  0  0  0
 60127  1  0  0  0  0
 61128  1  0  0  0  0
 61129  1  0  0  0  0
 61130  1  0  0  0  0
 62 63  1  0  0  0  0
 62131  1  0  0  0  0
 63 64  1  0  0  0  0
 63 66  1  0  0  0  0
 63132  1  1  0  0  0
 64 65  2  0  0  0  0
 64 67  1  0  0  0  0
 66133  1  0  0  0  0
 66134  1  0  0  0  0
 66135  1  0  0  0  0
 67 68  1  0  0  0  0
 67136  1  0  0  0  0
 68 69  1  0  0  0  0
 68 71  1  0  0  0  0
 68137  1  1  0  0  0
 69 70  1  0  0  0  0
 69 73  2  0  0  0  0
 71 72  1  0  0  0  0
 71138  1  0  0  0  0
 71139  1  0  0  0  0
M  CHG  2   1   1  70  -1
M  END
