4x34_ligand
 OpenBabel08222323353D

201202  0  0  1  0  0  0  0  0999 V2000
    5.8450    8.7320   43.5070 N   0  3  0  0  0  0  0  0  0  0  0  0
    6.7940    8.0250   42.6460 C   0  0  2  0  0  0  0  0  0  0  0  0
    6.1990    7.7120   41.2720 C   0  0  0  0  0  0  0  0  0  0  0  0
    5.2550    6.9250   41.1490 O   0  0  0  0  0  0  0  0  0  0  0  0
    7.3170    6.7270   43.3120 C   0  0  2  0  0  0  0  0  0  0  0  0
    7.4840    5.7050   42.3190 O   0  0  0  0  0  0  0  0  0  0  0  0
    6.3470    6.2380   44.3740 C   0  0  0  0  0  0  0  0  0  0  0  0
    6.7550    8.3370   40.2400 N   0  0  0  0  0  0  0  0  0  0  0  0
    6.1980    8.2040   38.8990 C   0  0  2  0  0  0  0  0  0  0  0  0
    6.9410    7.1860   38.0320 C   0  0  0  0  0  0  0  0  0  0  0  0
    8.1490    6.9780   38.1700 O   0  0  0  0  0  0  0  0  0  0  0  0
    6.1800    9.5570   38.2050 C   0  0  0  0  0  0  0  0  0  0  0  0
    7.4960   10.0250   38.0060 O   0  0  0  0  0  0  0  0  0  0  0  0
    6.2010    6.5520   37.1320 N   0  0  0  0  0  0  0  0  0  0  0  0
    6.7630    5.5720   36.2200 C   0  0  2  0  0  0  0  0  0  0  0  0
    6.3260    5.8870   34.7850 C   0  0  0  0  0  0  0  0  0  0  0  0
    5.2690    6.4840   34.5590 O   0  0  0  0  0  0  0  0  0  0  0  0
    6.2930    4.1680   36.6050 C   0  0  0  0  0  0  0  0  0  0  0  0
    6.7380    3.6930   37.9900 C   0  0  0  0  0  0  0  0  0  0  0  0
    6.2270    2.2830   38.2680 C   0  0  0  0  0  0  0  0  0  0  0  0
    4.9360    2.2790   38.9570 N   0  0  0  0  0  0  0  0  0  0  0  0
    4.0730    1.2660   38.9240 C   0  0  0  0  0  3  0  0  0  0  0  0
    4.3530    0.1770   38.2190 N   0  0  0  0  0  0  0  0  0  0  0  0
    2.9220    1.3460   39.5810 N   0  0  0  0  0  0  0  0  0  0  0  0
    7.1290    5.4810   33.8120 N   0  0  0  0  0  0  0  0  0  0  0  0
    6.7650    5.7370   32.4230 C   0  0  2  0  0  0  0  0  0  0  0  0
    5.5600    4.9100   32.0230 C   0  0  0  0  0  0  0  0  0  0  0  0
    5.4590    3.7370   32.3770 O   0  0  0  0  0  0  0  0  0  0  0  0
    7.9230    5.4340   31.4740 C   0  0  0  0  0  0  0  0  0  0  0  0
    7.7900    6.1290   30.1620 C   0  0  0  0  0  0  0  0  0  0  0  0
    6.9400    5.6850   29.1710 N   0  0  0  0  0  0  0  0  0  0  0  0
    8.3570    7.2650   29.6930 C   0  0  0  0  0  0  0  0  0  0  0  0
    6.9910    6.5180   28.1470 C   0  0  0  0  0  0  0  0  0  0  0  0
    7.8500    7.4820   28.4340 N   0  0  0  0  0  0  0  0  0  0  0  0
    2.8150    6.2370   24.1580 O   0  0  0  0  0  0  0  0  0  0  0  0
    2.1340    5.3760   24.7220 C   0  0  0  0  0  0  0  0  0  0  0  0
    1.9530    4.0160   24.0830 C   0  0  0  0  0  0  0  0  0  0  0  0
    1.5020    5.6300   25.9870 N   0  0  0  0  0  0  0  0  0  0  0  0
    1.6550    6.9210   26.6210 C   0  0  0  0  0  0  0  0  0  0  0  0
    1.6280    6.9570   28.1240 C   0  0  0  0  0  0  0  0  0  0  0  0
    2.7320    6.1840   28.8350 C   0  0  0  0  0  0  0  0  0  0  0  0
    2.4410    5.7510   30.2450 C   0  0  0  0  0  0  0  0  0  0  0  0
    3.4390    4.8510   30.9180 C   0  0  2  0  0  0  0  0  0  0  0  0
    4.6480    5.5180   31.2680 N   0  0  0  0  0  0  0  0  0  0  0  0
    3.6890    3.6090   30.1050 C   0  0  0  0  0  0  0  0  0  0  0  0
    2.8520    2.6780   30.1460 O   0  0  0  0  0  0  0  0  0  0  0  0
    4.8150    3.5000   29.4030 N   0  0  0  0  0  0  0  0  0  0  0  0
    5.0270    2.2900   28.6210 C   0  0  1  0  0  0  0  0  0  0  0  0
    6.1420    2.4070   27.5750 C   0  0  0  0  0  0  0  0  0  0  0  0
    6.1740    3.7110   26.7650 C   0  0  0  0  0  0  0  0  0  0  0  0
    5.6610    3.8610   25.3630 C   0  0  0  0  0  0  0  0  0  0  0  0
    6.5940    3.5780   24.1970 C   0  0  0  0  0  0  0  0  0  0  0  0
    7.3150    4.6200   23.4590 N   0  3  0  0  0  0  0  0  0  0  0  0
    6.6610    4.9250   22.1900 C   0  0  0  0  0  0  0  0  0  0  0  0
    8.5730    4.0010   23.1610 C   0  0  0  0  0  0  0  0  0  0  0  0
    5.2230    1.1100   29.5180 C   0  0  0  0  0  0  0  0  0  0  0  0
    5.0810   -0.0270   29.0800 O   0  0  0  0  0  0  0  0  0  0  0  0
    5.5200    1.3470   30.7890 N   0  0  0  0  0  0  0  0  0  0  0  0
    5.5730    0.2280   31.7410 C   0  0  2  0  0  0  0  0  0  0  0  0
    4.2060   -0.4030   31.9840 C   0  0  0  0  0  0  0  0  0  0  0  0
    4.1300   -1.5380   32.4670 O   0  0  0  0  0  0  0  0  0  0  0  0
    6.2050    0.6450   33.0700 C   0  0  0  0  0  0  0  0  0  0  0  0
    7.7120    0.9050   33.0080 C   0  0  0  0  0  0  0  0  0  0  0  0
    8.2380    1.3970   34.3450 C   0  0  0  0  0  0  0  0  0  0  0  0
    8.4400   -0.3600   32.5700 C   0  0  0  0  0  0  0  0  0  0  0  0
    3.1370    0.3150   31.6340 N   0  0  0  0  0  0  0  0  0  0  0  0
    1.7730   -0.2020   31.7890 C   0  0  2  0  0  0  0  0  0  0  0  0
    1.4850   -1.3960   30.8730 C   0  0  0  0  0  0  0  0  0  0  0  0
    0.5330   -2.1450   31.1040 O   0  0  0  0  0  0  0  0  0  0  0  0
    0.7310    0.9100   31.5450 C   0  0  0  0  0  0  0  0  0  0  0  0
    0.7770    2.0680   32.5460 C   0  0  0  0  0  0  0  0  0  0  0  0
   -0.0910    3.5740   31.9950 S   0  0  0  0  0  0  0  0  0  0  0  0
   -1.7750    3.0010   31.9050 C   0  0  0  0  0  0  0  0  0  0  0  0
    2.3110   -1.5860   29.8450 N   0  0  0  0  0  0  0  0  0  0  0  0
    2.1140   -2.6790   28.8830 C   0  0  2  0  0  0  0  0  0  0  0  0
    2.9630   -3.9150   29.1840 C   0  0  0  0  0  0  0  0  0  0  0  0
    2.9390   -4.8920   28.4320 O   0  0  0  0  0  0  0  0  0  0  0  0
    2.3860   -2.2010   27.4520 C   0  0  0  0  0  0  0  0  0  0  0  0
    1.5090   -1.0710   27.0170 C   0  0  0  0  0  0  0  0  0  0  0  0
    0.3300   -1.3190   26.3280 C   0  0  0  0  0  0  0  0  0  0  0  0
    1.8700    0.2470   27.2780 C   0  0  0  0  0  0  0  0  0  0  0  0
   -0.4800   -0.2700   25.9220 C   0  0  0  0  0  0  0  0  0  0  0  0
    1.0570    1.3010   26.8860 C   0  0  0  0  0  0  0  0  0  0  0  0
   -0.1160    1.0420   26.2050 C   0  0  0  0  0  0  0  0  0  0  0  0
    3.7140   -3.8620   30.2760 N   0  0  0  0  0  0  0  0  0  0  0  0
    4.5480   -4.9850   30.6830 C   0  0  2  0  0  0  0  0  0  0  0  0
    3.9090   -5.7430   31.8400 C   0  0  0  0  0  0  0  0  0  0  0  0
    2.9610   -6.5070   31.6340 O   0  5  0  0  0  0  0  0  0  0  0  0
    5.9550   -4.5060   31.0470 C   0  0  0  0  0  0  0  0  0  0  0  0
    6.7950   -4.1300   29.8310 C   0  0  0  0  0  0  0  0  0  0  0  0
    8.1700   -3.6100   30.2330 C   0  0  0  0  0  0  0  0  0  0  0  0
    8.9430   -4.6250   31.0590 C   0  0  0  0  0  0  0  0  0  0  0  0
    9.8690   -3.9590   32.0230 N   0  3  0  0  0  0  0  0  0  0  0  0
    4.3360   -5.5970   32.9890 O   0  0  0  0  0  0  0  0  0  0  0  0
    5.5277    9.5681   43.0418 H   0  0  0  0  0  0  0  0  0  0  0  0
    6.2974    8.9803   44.3729 H   0  0  0  0  0  0  0  0  0  0  0  0
    5.0562    8.1346   43.6993 H   0  0  0  0  0  0  0  0  0  0  0  0
    7.6554    8.6914   42.4917 H   0  0  0  0  0  0  0  0  0  0  0  0
    8.2887    6.9354   43.7834 H   0  0  0  0  0  0  0  0  0  0  0  0
    6.6483    5.5303   41.9023 H   0  0  0  0  0  0  0  0  0  0  0  0
    6.7383    5.3176   44.8320 H   0  0  0  0  0  0  0  0  0  0  0  0
    5.3707    6.0309   43.9115 H   0  0  0  0  0  0  0  0  0  0  0  0
    6.2297    7.0113   45.1475 H   0  0  0  0  0  0  0  0  0  0  0  0
    7.5650    8.9053   40.3845 H   0  0  0  0  0  0  0  0  0  0  0  0
    5.1596    7.8567   39.0039 H   0  0  0  0  0  0  0  0  0  0  0  0
    5.6297   10.2770   38.8285 H   0  0  0  0  0  0  0  0  0  0  0  0
    5.6793    9.4580   37.2306 H   0  0  0  0  0  0  0  0  0  0  0  0
    7.9300   10.1135   38.8465 H   0  0  0  0  0  0  0  0  0  0  0  0
    5.2234    6.7558   37.0799 H   0  0  0  0  0  0  0  0  0  0  0  0
    7.8606    5.6131   36.2800 H   0  0  0  0  0  0  0  0  0  0  0  0
    6.6854    3.4606   35.8596 H   0  0  0  0  0  0  0  0  0  0  0  0
    5.1934    4.1570   36.5778 H   0  0  0  0  0  0  0  0  0  0  0  0
    6.3385    4.3783   38.7521 H   0  0  0  0  0  0  0  0  0  0  0  0
    7.8370    3.6940   38.0359 H   0  0  0  0  0  0  0  0  0  0  0  0
    6.9629    1.7586   38.8953 H   0  0  0  0  0  0  0  0  0  0  0  0
    6.1171    1.7527   37.3106 H   0  0  0  0  0  0  0  0  0  0  0  0
    4.6785    3.1138   39.5026 H   0  0  0  0  0  0  0  0  0  0  0  0
    3.6846   -0.6063   38.1940 H   0  0  0  0  0  0  0  0  0  0  0  0
    5.2387    0.1151   37.6968 H   0  0  0  0  0  0  0  0  0  0  0  0
    2.6997    2.1889   40.1297 H   0  0  0  0  0  0  0  0  0  0  0  0
    2.2514    0.5652   39.5420 H   0  0  0  0  0  0  0  0  0  0  0  0
    7.9796    5.0019   34.0289 H   0  0  0  0  0  0  0  0  0  0  0  0
    6.5068    6.8020   32.3273 H   0  0  0  0  0  0  0  0  0  0  0  0
    7.9567    4.3491   31.2954 H   0  0  0  0  0  0  0  0  0  0  0  0
    8.8610    5.7567   31.9494 H   0  0  0  0  0  0  0  0  0  0  0  0
    9.0797    7.8901   30.2154 H   0  0  0  0  0  0  0  0  0  0  0  0
    6.4221    6.4265   27.2229 H   0  0  0  0  0  0  0  0  0  0  0  0
    8.0984    8.2670   27.8152 H   0  0  0  0  0  0  0  0  0  0  0  0
    1.3200    3.3891   24.7282 H   0  0  0  0  0  0  0  0  0  0  0  0
    2.9350    3.5369   23.9559 H   0  0  0  0  0  0  0  0  0  0  0  0
    1.4724    4.1335   23.1006 H   0  0  0  0  0  0  0  0  0  0  0  0
    0.9578    4.9162   26.4279 H   0  0  0  0  0  0  0  0  0  0  0  0
    0.8399    7.5654   26.2601 H   0  0  0  0  0  0  0  0  0  0  0  0
    2.6210    7.3359   26.2976 H   0  0  0  0  0  0  0  0  0  0  0  0
    0.6633    6.5429   28.4524 H   0  0  0  0  0  0  0  0  0  0  0  0
    1.7007    8.0093   28.4360 H   0  0  0  0  0  0  0  0  0  0  0  0
    3.6267    6.8234   28.8589 H   0  0  0  0  0  0  0  0  0  0  0  0
    2.9426    5.2806   28.2439 H   0  0  0  0  0  0  0  0  0  0  0  0
    1.4764    5.2223   30.2342 H   0  0  0  0  0  0  0  0  0  0  0  0
    2.3537    6.6608   30.8570 H   0  0  0  0  0  0  0  0  0  0  0  0
    2.9800    4.5245   31.8628 H   0  0  0  0  0  0  0  0  0  0  0  0
    4.8127    6.4497   30.9441 H   0  0  0  0  0  0  0  0  0  0  0  0
    5.4978    4.2305   29.4125 H   0  0  0  0  0  0  0  0  0  0  0  0
    4.0971    2.1142   28.0603 H   0  0  0  0  0  0  0  0  0  0  0  0
    6.0267    1.5738   26.8661 H   0  0  0  0  0  0  0  0  0  0  0  0
    7.1050    2.3127   28.0982 H   0  0  0  0  0  0  0  0  0  0  0  0
    7.2329    4.0060   26.7239 H   0  0  0  0  0  0  0  0  0  0  0  0
    5.6123    4.4432   27.3637 H   0  0  0  0  0  0  0  0  0  0  0  0
    5.3190    4.9009   25.2556 H   0  0  0  0  0  0  0  0  0  0  0  0
    4.8030    3.1804   25.2603 H   0  0  0  0  0  0  0  0  0  0  0  0
    5.9862    3.0476   23.4491 H   0  0  0  0  0  0  0  0  0  0  0  0
    7.3664    2.9002   24.5893 H   0  0  0  0  0  0  0  0  0  0  0  0
    7.4226    5.4558   24.0121 H   0  0  0  0  0  0  0  0  0  0  0  0
    7.2272    5.7083   21.6647 H   0  0  0  0  0  0  0  0  0  0  0  0
    5.6369    5.2783   22.3809 H   0  0  0  0  0  0  0  0  0  0  0  0
    6.6262    4.0183   21.5682 H   0  0  0  0  0  0  0  0  0  0  0  0
    9.0932    3.7576   24.0992 H   0  0  0  0  0  0  0  0  0  0  0  0
    9.1903    4.6919   22.5681 H   0  0  0  0  0  0  0  0  0  0  0  0
    8.4009    3.0785   22.5871 H   0  0  0  0  0  0  0  0  0  0  0  0
    5.7064    2.2799   31.0972 H   0  0  0  0  0  0  0  0  0  0  0  0
    6.2168   -0.5447   31.2954 H   0  0  0  0  0  0  0  0  0  0  0  0
    6.0255   -0.1569   33.8013 H   0  0  0  0  0  0  0  0  0  0  0  0
    5.7118    1.5678   33.4093 H   0  0  0  0  0  0  0  0  0  0  0  0
    7.8970    1.6883   32.2583 H   0  0  0  0  0  0  0  0  0  0  0  0
    9.3209    1.5748   34.2700 H   0  0  0  0  0  0  0  0  0  0  0  0
    8.0437    0.6381   35.1172 H   0  0  0  0  0  0  0  0  0  0  0  0
    7.7305    2.3344   34.6162 H   0  0  0  0  0  0  0  0  0  0  0  0
    8.0416   -0.6954   31.6011 H   0  0  0  0  0  0  0  0  0  0  0  0
    8.2889   -1.1489   33.3215 H   0  0  0  0  0  0  0  0  0  0  0  0
    9.5150   -0.1488   32.4711 H   0  0  0  0  0  0  0  0  0  0  0  0
    3.2695    1.2311   31.2555 H   0  0  0  0  0  0  0  0  0  0  0  0
    1.6666   -0.5457   32.8285 H   0  0  0  0  0  0  0  0  0  0  0  0
   -0.2701    0.4566   31.5929 H   0  0  0  0  0  0  0  0  0  0  0  0
    0.8995    1.3213   30.5388 H   0  0  0  0  0  0  0  0  0  0  0  0
    1.8312    2.3251   32.7267 H   0  0  0  0  0  0  0  0  0  0  0  0
    0.3159    1.7293   33.4855 H   0  0  0  0  0  0  0  0  0  0  0  0
   -2.4257    3.8252   31.5773 H   0  0  0  0  0  0  0  0  0  0  0  0
   -2.0971    2.6519   32.8971 H   0  0  0  0  0  0  0  0  0  0  0  0
   -1.8423    2.1722   31.1849 H   0  0  0  0  0  0  0  0  0  0  0  0
    3.0872   -0.9671   29.7247 H   0  0  0  0  0  0  0  0  0  0  0  0
    1.0581   -2.9811   28.9449 H   0  0  0  0  0  0  0  0  0  0  0  0
    2.2267   -3.0471   26.7674 H   0  0  0  0  0  0  0  0  0  0  0  0
    3.4335   -1.8710   27.3896 H   0  0  0  0  0  0  0  0  0  0  0  0
    0.0407   -2.3398   26.1059 H   0  0  0  0  0  0  0  0  0  0  0  0
    2.8000    0.4536   27.7952 H   0  0  0  0  0  0  0  0  0  0  0  0
   -1.3985   -0.4726   25.3831 H   0  0  0  0  0  0  0  0  0  0  0  0
    1.3412    2.3221   27.1131 H   0  0  0  0  0  0  0  0  0  0  0  0
   -0.7529    1.8611   25.8911 H   0  0  0  0  0  0  0  0  0  0  0  0
    3.7076   -3.0316   30.8331 H   0  0  0  0  0  0  0  0  0  0  0  0
    4.6328   -5.6747   29.8303 H   0  0  0  0  0  0  0  0  0  0  0  0
    6.4689   -5.3121   31.5911 H   0  0  0  0  0  0  0  0  0  0  0  0
    5.8665   -3.6232   31.6972 H   0  0  0  0  0  0  0  0  0  0  0  0
    6.2701   -3.3473   29.2636 H   0  0  0  0  0  0  0  0  0  0  0  0
    6.9221   -5.0198   29.1969 H   0  0  0  0  0  0  0  0  0  0  0  0
    8.0433   -2.6922   30.8259 H   0  0  0  0  0  0  0  0  0  0  0  0
    8.7437   -3.3821   29.3226 H   0  0  0  0  0  0  0  0  0  0  0  0
    9.5306   -5.2627   30.3822 H   0  0  0  0  0  0  0  0  0  0  0  0
    8.2295   -5.2459   31.6205 H   0  0  0  0  0  0  0  0  0  0  0  0
   10.3638   -4.6598   32.5524 H   0  0  0  0  0  0  0  0  0  0  0  0
    9.3380   -3.3762   32.6510 H   0  0  0  0  0  0  0  0  0  0  0  0
   10.5303   -3.3916   31.5163 H   0  0  0  0  0  0  0  0  0  0  0  0
  1 95  1  0  0  0  0
  1 96  1  0  0  0  0
  1 97  1  0  0  0  0
  2  1  1  0  0  0  0
  2  5  1  0  0  0  0
  2 98  1  6  0  0  0
  3  2  1  0  0  0  0
  3  4  2  0  0  0  0
  5  6  1  0  0  0  0
  5  7  1  0  0  0  0
  5 99  1  1  0  0  0
  6100  1  0  0  0  0
  7101  1  0  0  0  0
  7102  1  0  0  0  0
  7103  1  0  0  0  0
  8  3  1  0  0  0  0
  8104  1  0  0  0  0
  9  8  1  0  0  0  0
  9 12  1  0  0  0  0
  9105  1  1  0  0  0
 10  9  1  0  0  0  0
 10 11  2  0  0  0  0
 12 13  1  0  0  0  0
 12106  1  0  0  0  0
 12107  1  0  0  0  0
 13108  1  0  0  0  0
 14 10  1  0  0  0  0
 14109  1  0  0  0  0
 15 14  1  0  0  0  0
 15 18  1  0  0  0  0
 15110  1  1  0  0  0
 16 15  1  0  0  0  0
 16 17  2  0  0  0  0
 18 19  1  0  0  0  0
 18111  1  0  0  0  0
 18112  1  0  0  0  0
 19 20  1  0  0  0  0
 19113  1  0  0  0  0
 19114  1  0  0  0  0
 20 21  1  0  0  0  0
 20115  1  0  0  0  0
 20116  1  0  0  0  0
 21 22  1  0  0  0  0
 21117  1  0  0  0  0
 22 23  1  0  0  0  0
 22 24  1  0  0  0  0
 23118  1  0  0  0  0
 23119  1  0  0  0  0
 24120  1  0  0  0  0
 24121  1  0  0  0  0
 25 16  1  0  0  0  0
 25122  1  0  0  0  0
 26 25  1  0  0  0  0
 26 29  1  0  0  0  0
 26123  1  6  0  0  0
 27 26  1  0  0  0  0
 27 28  2  0  0  0  0
 29 30  1  0  0  0  0
 29124  1  0  0  0  0
 29125  1  0  0  0  0
 30 31  1  0  0  0  0
 30 32  2  0  0  0  0
 31 33  2  0  0  0  0
 32 34  1  0  0  0  0
 32126  1  0  0  0  0
 33127  1  0  0  0  0
 34 33  1  0  0  0  0
 34128  1  0  0  0  0
 36 35  2  0  0  0  0
 36 37  1  0  0  0  0
 37129  1  0  0  0  0
 37130  1  0  0  0  0
 37131  1  0  0  0  0
 38 36  1  0  0  0  0
 38132  1  0  0  0  0
 39 38  1  0  0  0  0
 39133  1  0  0  0  0
 39134  1  0  0  0  0
 40 39  1  0  0  0  0
 40135  1  0  0  0  0
 40136  1  0  0  0  0
 41 40  1  0  0  0  0
 41137  1  0  0  0  0
 41138  1  0  0  0  0
 42 41  1  0  0  0  0
 42139  1  0  0  0  0
 42140  1  0  0  0  0
 43 42  1  0  0  0  0
 43 44  1  0  0  0  0
 43 45  1  0  0  0  0
 43141  1  1  0  0  0
 44 27  1  0  0  0  0
 44142  1  0  0  0  0
 45 46  2  0  0  0  0
 45 47  1  0  0  0  0
 47 48  1  0  0  0  0
 47143  1  0  0  0  0
 48 49  1  0  0  0  0
 48 56  1  0  0  0  0
 48144  1  6  0  0  0
 49 50  1  0  0  0  0
 49145  1  0  0  0  0
 49146  1  0  0  0  0
 50 51  1  0  0  0  0
 50147  1  0  0  0  0
 50148  1  0  0  0  0
 51 52  1  0  0  0  0
 51149  1  0  0  0  0
 51150  1  0  0  0  0
 52 53  1  0  0  0  0
 52151  1  0  0  0  0
 52152  1  0  0  0  0
 53 54  1  0  0  0  0
 53 55  1  0  0  0  0
 53153  1  0  0  0  0
 54154  1  0  0  0  0
 54155  1  0  0  0  0
 54156  1  0  0  0  0
 55157  1  0  0  0  0
 55158  1  0  0  0  0
 55159  1  0  0  0  0
 56 57  2  0  0  0  0
 56 58  1  0  0  0  0
 58 59  1  0  0  0  0
 58160  1  0  0  0  0
 59 60  1  0  0  0  0
 59 62  1  0  0  0  0
 59161  1  6  0  0  0
 60 61  2  0  0  0  0
 60 66  1  0  0  0  0
 62 63  1  0  0  0  0
 62162  1  0  0  0  0
 62163  1  0  0  0  0
 63 64  1  0  0  0  0
 63 65  1  0  0  0  0
 63164  1  0  0  0  0
 64165  1  0  0  0  0
 64166  1  0  0  0  0
 64167  1  0  0  0  0
 65168  1  0  0  0  0
 65169  1  0  0  0  0
 65170  1  0  0  0  0
 66 67  1  0  0  0  0
 66171  1  0  0  0  0
 67 68  1  0  0  0  0
 67 70  1  0  0  0  0
 67172  1  1  0  0  0
 68 69  2  0  0  0  0
 68 74  1  0  0  0  0
 70 71  1  0  0  0  0
 70173  1  0  0  0  0
 70174  1  0  0  0  0
 71 72  1  0  0  0  0
 71175  1  0  0  0  0
 71176  1  0  0  0  0
 72 73  1  0  0  0  0
 73177  1  0  0  0  0
 73178  1  0  0  0  0
 73179  1  0  0  0  0
 74 75  1  0  0  0  0
 74180  1  0  0  0  0
 75 76  1  0  0  0  0
 75 78  1  0  0  0  0
 75181  1  1  0  0  0
 76 77  2  0  0  0  0
 76 85  1  0  0  0  0
 78 79  1  0  0  0  0
 78182  1  0  0  0  0
 78183  1  0  0  0  0
 79 80  2  0  0  0  0
 79 81  1  0  0  0  0
 80 82  1  0  0  0  0
 80184  1  0  0  0  0
 81 83  2  0  0  0  0
 81185  1  0  0  0  0
 82 84  2  0  0  0  0
 82186  1  0  0  0  0
 83 84  1  0  0  0  0
 83187  1  0  0  0  0
 84188  1  0  0  0  0
 85 86  1  0  0  0  0
 85189  1  0  0  0  0
 86 87  1  0  0  0  0
 86 89  1  0  0  0  0
 86190  1  6  0  0  0
 87 88  1  0  0  0  0
 87 94  2  0  0  0  0
 89 90  1  0  0  0  0
 89191  1  0  0  0  0
 89192  1  0  0  0  0
 90 91  1  0  0  0  0
 90193  1  0  0  0  0
 90194  1  0  0  0  0
 91 92  1  0  0  0  0
 91195  1  0  0  0  0
 91196  1  0  0  0  0
 92 93  1  0  0  0  0
 92197  1  0  0  0  0
 92198  1  0  0  0  0
 93199  1  0  0  0  0
 93200  1  0  0  0  0
 93201  1  0  0  0  0
M  CHG  4   1   1  53   1  88  -1  93   1
M  END
