4x3r_ligand
 OpenBabel08222323353D

 88 91  0  0  1  0  0  0  0  0999 V2000
   32.7370    9.4930   33.7220 C   0  0  0  0  0  0  0  0  0  0  0  0
   31.4920    9.1140   34.2100 C   0  0  0  0  0  0  0  0  0  0  0  0
   30.3550    9.9140   34.0050 C   0  0  0  0  0  0  0  0  0  0  0  0
   32.8360   10.6950   33.0280 C   0  0  0  0  0  0  0  0  0  0  0  0
   31.7050   11.5020   32.8230 C   0  0  0  0  0  0  0  0  0  0  0  0
   30.4450   11.1170   33.2990 C   0  0  0  0  0  0  0  0  0  0  0  0
   29.3080   11.9590   33.1150 N   0  0  0  0  0  0  0  0  0  0  0  0
   27.9470   11.3950   33.1300 C   0  0  0  0  0  0  0  0  0  0  0  0
   26.8730   12.3430   32.5660 C   0  0  0  0  0  0  0  0  0  0  0  0
   29.5860   13.4000   33.0320 C   0  0  0  0  0  0  0  0  0  0  0  0
   28.4960   14.1700   32.2910 C   0  0  0  0  0  0  0  0  0  0  0  0
   27.2340   13.7230   32.8580 N   0  0  0  0  0  0  0  0  0  0  0  0
   26.4030   14.5690   33.6480 C   0  0  0  0  0  0  0  0  0  0  0  0
   25.4180   13.9840   34.4230 C   0  0  0  0  0  0  0  0  0  0  0  0
   24.5790   14.7480   35.2250 C   0  0  0  0  0  0  0  0  0  0  0  0
   26.5290   15.9410   33.6920 N   0  0  0  0  0  0  0  0  0  0  0  0
   25.7090   16.7220   34.4540 C   0  0  0  0  0  0  0  0  0  0  0  0
   24.7090   16.1430   35.2510 C   0  0  0  0  0  0  0  0  0  0  0  0
   23.7640   16.9610   36.1000 C   0  0  0  0  0  0  0  0  0  0  0  0
   22.5510   17.0200   35.8400 O   0  0  0  0  0  0  0  0  0  0  0  0
   24.1870   17.6370   37.1560 N   0  0  0  0  0  0  0  0  0  0  0  0
   25.5660   17.6550   37.6070 C   0  0  0  0  0  0  0  0  0  0  0  0
   25.9270   16.2640   38.0300 C   0  0  0  0  0  0  0  0  0  0  0  0
   26.8020   15.5110   37.2300 C   0  0  0  0  0  0  0  0  0  0  0  0
   27.1750   14.2180   37.5990 C   0  0  0  0  0  0  0  0  0  0  0  0
   26.6550   13.6760   38.7760 C   0  0  0  0  0  0  0  0  0  0  0  0
   27.1610   11.9150   39.2870 Br  0  0  0  0  0  0  0  0  0  0  0  0
   25.7810   14.4280   39.5740 C   0  0  0  0  0  0  0  0  0  0  0  0
   25.4250   15.7360   39.2110 C   0  0  0  0  0  0  0  0  0  0  0  0
   23.2170   18.3870   37.9490 C   0  0  0  0  0  0  0  0  0  0  0  0
   23.1480   19.8110   37.4130 C   0  0  0  0  0  0  0  0  0  0  0  0
   22.2980   19.9720   36.1300 C   0  0  0  0  0  0  0  0  0  0  0  0
   20.8400   19.6050   36.3410 C   0  0  0  0  0  0  0  0  0  0  0  0
   19.8980   20.1860   35.2670 C   0  0  1  0  0  0  0  0  0  0  0  0
   20.1570   19.5350   33.9340 C   0  0  0  0  0  0  0  0  0  0  0  0
   20.7890   20.0560   33.0350 O   0  5  0  0  0  0  0  0  0  0  0  0
   19.6610   18.3320   33.7150 O   0  0  0  0  0  0  0  0  0  0  0  0
   18.5560   19.9060   35.7030 N   0  0  0  0  0  0  0  0  0  0  0  0
   17.8660   20.6550   36.5700 C   0  0  0  0  0  0  0  0  0  0  0  0
   18.3160   21.6920   37.0770 O   0  0  0  0  0  0  0  0  0  0  0  0
   16.6550   20.2110   36.8950 N   0  0  0  0  0  0  0  0  0  0  0  0
   16.0220   20.7060   38.0820 C   0  0  2  0  0  0  0  0  0  0  0  0
   16.9790   20.5180   39.2330 C   0  0  0  0  0  0  0  0  0  0  0  0
   17.8590   19.6200   39.2930 O   0  5  0  0  0  0  0  0  0  0  0  0
   16.8210   21.3640   40.2250 O   0  0  0  0  0  0  0  0  0  0  0  0
   14.7300   20.0120   38.5180 C   0  0  0  0  0  0  0  0  0  0  0  0
   14.9300   18.5170   38.6140 C   0  0  0  0  0  0  0  0  0  0  0  0
   13.7810   17.7690   39.2700 C   0  0  0  0  0  0  0  0  0  0  0  0
   12.8960   18.2860   39.9840 O   0  5  0  0  0  0  0  0  0  0  0  0
   13.7170   16.4520   39.0560 O   0  0  0  0  0  0  0  0  0  0  0  0
   33.6088    8.8680   33.8781 H   0  0  0  0  0  0  0  0  0  0  0  0
   31.3963    8.1841   34.7589 H   0  0  0  0  0  0  0  0  0  0  0  0
   29.3970    9.5944   34.3990 H   0  0  0  0  0  0  0  0  0  0  0  0
   33.7976   11.0123   32.6410 H   0  0  0  0  0  0  0  0  0  0  0  0
   31.8088   12.4387   32.2874 H   0  0  0  0  0  0  0  0  0  0  0  0
   27.6837   11.1531   34.1703 H   0  0  0  0  0  0  0  0  0  0  0  0
   27.9469   10.4743   32.5281 H   0  0  0  0  0  0  0  0  0  0  0  0
   25.9024   12.1131   33.0297 H   0  0  0  0  0  0  0  0  0  0  0  0
   26.8005   12.2067   31.4769 H   0  0  0  0  0  0  0  0  0  0  0  0
   30.5397   13.5443   32.5033 H   0  0  0  0  0  0  0  0  0  0  0  0
   29.6682   13.8017   34.0527 H   0  0  0  0  0  0  0  0  0  0  0  0
   28.5328   13.9445   31.2150 H   0  0  0  0  0  0  0  0  0  0  0  0
   28.6215   15.2521   32.4434 H   0  0  0  0  0  0  0  0  0  0  0  0
   25.2980   12.9068   34.4043 H   0  0  0  0  0  0  0  0  0  0  0  0
   23.8224   14.2639   35.8318 H   0  0  0  0  0  0  0  0  0  0  0  0
   25.8311   17.7991   34.4436 H   0  0  0  0  0  0  0  0  0  0  0  0
   25.6727   18.3444   38.4575 H   0  0  0  0  0  0  0  0  0  0  0  0
   26.2237   17.9795   36.7872 H   0  0  0  0  0  0  0  0  0  0  0  0
   27.1926   15.9398   36.3142 H   0  0  0  0  0  0  0  0  0  0  0  0
   27.8570   13.6440   36.9822 H   0  0  0  0  0  0  0  0  0  0  0  0
   25.3759   13.9943   40.4811 H   0  0  0  0  0  0  0  0  0  0  0  0
   24.7689   16.3240   39.8426 H   0  0  0  0  0  0  0  0  0  0  0  0
   23.5326   18.4026   39.0026 H   0  0  0  0  0  0  0  0  0  0  0  0
   22.2276   17.9129   37.8695 H   0  0  0  0  0  0  0  0  0  0  0  0
   24.1723   20.1447   37.1908 H   0  0  0  0  0  0  0  0  0  0  0  0
   22.7149   20.4521   38.1949 H   0  0  0  0  0  0  0  0  0  0  0  0
   22.7149   19.3204   35.3480 H   0  0  0  0  0  0  0  0  0  0  0  0
   22.3526   21.0203   35.8013 H   0  0  0  0  0  0  0  0  0  0  0  0
   20.5239   19.9850   37.3237 H   0  0  0  0  0  0  0  0  0  0  0  0
   20.7511   18.5087   36.3258 H   0  0  0  0  0  0  0  0  0  0  0  0
   20.0491   21.2720   35.1788 H   0  0  0  0  0  0  0  0  0  0  0  0
   18.1070   19.0934   35.3313 H   0  0  0  0  0  0  0  0  0  0  0  0
   16.1912   19.5391   36.3175 H   0  0  0  0  0  0  0  0  0  0  0  0
   15.8100   21.7749   37.9324 H   0  0  0  0  0  0  0  0  0  0  0  0
   13.9407   20.2237   37.7817 H   0  0  0  0  0  0  0  0  0  0  0  0
   14.4270   20.3992   39.5020 H   0  0  0  0  0  0  0  0  0  0  0  0
   15.8416   18.3291   39.2002 H   0  0  0  0  0  0  0  0  0  0  0  0
   15.0607   18.1216   37.5959 H   0  0  0  0  0  0  0  0  0  0  0  0
  1  2  2  0  0  0  0
  1  4  1  0  0  0  0
  1 51  1  0  0  0  0
  2  3  1  0  0  0  0
  2 52  1  0  0  0  0
  3  6  2  0  0  0  0
  3 53  1  0  0  0  0
  4  5  2  0  0  0  0
  4 54  1  0  0  0  0
  5  6  1  0  0  0  0
  5 55  1  0  0  0  0
  6  7  1  0  0  0  0
  7  8  1  0  0  0  0
  7 10  1  0  0  0  0
  8  9  1  0  0  0  0
  8 56  1  0  0  0  0
  8 57  1  0  0  0  0
  9 12  1  0  0  0  0
  9 58  1  0  0  0  0
  9 59  1  0  0  0  0
 10 11  1  0  0  0  0
 10 60  1  0  0  0  0
 10 61  1  0  0  0  0
 11 12  1  0  0  0  0
 11 62  1  0  0  0  0
 11 63  1  0  0  0  0
 12 13  1  0  0  0  0
 13 14  2  0  0  0  0
 13 16  1  0  0  0  0
 14 15  1  0  0  0  0
 14 64  1  0  0  0  0
 15 18  2  0  0  0  0
 15 65  1  0  0  0  0
 16 17  2  0  0  0  0
 17 18  1  0  0  0  0
 17 66  1  0  0  0  0
 18 19  1  0  0  0  0
 19 20  2  0  0  0  0
 19 21  1  0  0  0  0
 21 22  1  0  0  0  0
 21 30  1  0  0  0  0
 22 23  1  0  0  0  0
 22 67  1  0  0  0  0
 22 68  1  0  0  0  0
 23 24  2  0  0  0  0
 23 29  1  0  0  0  0
 24 25  1  0  0  0  0
 24 69  1  0  0  0  0
 25 26  2  0  0  0  0
 25 70  1  0  0  0  0
 26 27  1  0  0  0  0
 26 28  1  0  0  0  0
 28 29  2  0  0  0  0
 28 71  1  0  0  0  0
 29 72  1  0  0  0  0
 30 31  1  0  0  0  0
 30 73  1  0  0  0  0
 30 74  1  0  0  0  0
 31 32  1  0  0  0  0
 31 75  1  0  0  0  0
 31 76  1  0  0  0  0
 32 33  1  0  0  0  0
 32 77  1  0  0  0  0
 32 78  1  0  0  0  0
 33 34  1  0  0  0  0
 33 79  1  0  0  0  0
 33 80  1  0  0  0  0
 34 35  1  0  0  0  0
 34 38  1  0  0  0  0
 34 81  1  6  0  0  0
 35 36  1  0  0  0  0
 35 37  2  0  0  0  0
 38 39  1  0  0  0  0
 38 82  1  0  0  0  0
 39 40  2  0  0  0  0
 39 41  1  0  0  0  0
 41 42  1  0  0  0  0
 41 83  1  0  0  0  0
 42 43  1  0  0  0  0
 42 46  1  0  0  0  0
 42 84  1  6  0  0  0
 43 44  1  0  0  0  0
 43 45  2  0  0  0  0
 46 47  1  0  0  0  0
 46 85  1  0  0  0  0
 46 86  1  0  0  0  0
 47 48  1  0  0  0  0
 47 87  1  0  0  0  0
 47 88  1  0  0  0  0
 48 49  1  0  0  0  0
 48 50  2  0  0  0  0
M  CHG  3  36  -1  44  -1  49  -1
M  END
