4x49_ligand
 OpenBabel08222323353D

 44 44  0  0  1  0  0  0  0  0999 V2000
  -31.5460   86.6280   19.5190 C   0  0  0  0  0  0  0  0  0  0  0  0
  -32.2860   85.6360   19.7390 O   0  5  0  0  0  0  0  0  0  0  0  0
  -30.8050   87.1290   20.4230 O   0  0  0  0  0  0  0  0  0  0  0  0
  -31.4630   87.1780   18.1680 C   0  0  0  0  0  0  0  0  0  0  0  0
  -30.1940   87.8890   17.7710 C   0  0  0  0  0  0  0  0  0  0  0  0
  -30.0860   88.1990   16.3050 C   0  0  1  0  0  0  0  0  0  0  0  0
  -31.4400   88.6620   15.7770 C   0  0  1  0  0  0  0  0  0  0  0  0
  -31.3520   88.9680   14.3750 N   0  0  0  0  0  0  0  0  0  0  0  0
  -31.5420   90.1670   13.7950 C   0  0  0  0  0  0  0  0  0  0  0  0
  -31.8380   91.1710   14.4170 O   0  0  0  0  0  0  0  0  0  0  0  0
  -31.3340   90.1890   12.3070 C   0  0  0  0  0  0  0  0  0  0  0  0
  -32.5300   87.6090   15.9580 C   0  0  1  0  0  0  0  0  0  0  0  0
  -32.5070   87.0940   17.3520 C   0  0  0  0  0  0  0  0  0  0  0  0
  -33.7750   88.2570   15.7440 O   0  0  0  0  0  0  0  0  0  0  0  0
  -34.8880   87.5320   15.1780 C   0  0  0  0  0  0  0  0  0  0  0  0
  -36.1990   87.9270   15.8740 C   0  0  0  0  0  0  0  0  0  0  0  0
  -35.2810   87.7980   13.7200 C   0  0  0  0  0  0  0  0  0  0  0  0
  -34.1290   88.1100   12.8460 C   0  0  0  0  0  0  0  0  0  0  0  0
  -36.2890   87.4980   17.3180 C   0  0  0  0  0  0  0  0  0  0  0  0
  -29.0900   89.2650   16.1830 N   0  3  0  0  0  0  0  0  0  0  0  0
  -29.3416   87.2527   18.0513 H   0  0  0  0  0  0  0  0  0  0  0  0
  -30.1427   88.8366   18.3272 H   0  0  0  0  0  0  0  0  0  0  0  0
  -29.7592   87.3087   15.7478 H   0  0  0  0  0  0  0  0  0  0  0  0
  -31.7313   89.5692   16.3267 H   0  0  0  0  0  0  0  0  0  0  0  0
  -31.1253   88.2082   13.7656 H   0  0  0  0  0  0  0  0  0  0  0  0
  -31.5112   91.2060   11.9270 H   0  0  0  0  0  0  0  0  0  0  0  0
  -32.0366   89.4911   11.8282 H   0  0  0  0  0  0  0  0  0  0  0  0
  -30.3020   89.8861   12.0765 H   0  0  0  0  0  0  0  0  0  0  0  0
  -32.3909   86.7836   15.2443 H   0  0  0  0  0  0  0  0  0  0  0  0
  -33.4087   86.6147   17.7302 H   0  0  0  0  0  0  0  0  0  0  0  0
  -34.6788   86.4599   15.3079 H   0  0  0  0  0  0  0  0  0  0  0  0
  -37.0331   87.4657   15.3250 H   0  0  0  0  0  0  0  0  0  0  0  0
  -36.2943   89.0221   15.8334 H   0  0  0  0  0  0  0  0  0  0  0  0
  -35.9765   88.6499   13.6967 H   0  0  0  0  0  0  0  0  0  0  0  0
  -35.7844   86.9028   13.3262 H   0  0  0  0  0  0  0  0  0  0  0  0
  -34.4846   88.2884   11.8205 H   0  0  0  0  0  0  0  0  0  0  0  0
  -33.4269   87.2632   12.8485 H   0  0  0  0  0  0  0  0  0  0  0  0
  -33.6190   89.0104   13.2190 H   0  0  0  0  0  0  0  0  0  0  0  0
  -37.2541   87.8195   17.7365 H   0  0  0  0  0  0  0  0  0  0  0  0
  -35.4699   87.9591   17.8893 H   0  0  0  0  0  0  0  0  0  0  0  0
  -36.2087   86.4027   17.3808 H   0  0  0  0  0  0  0  0  0  0  0  0
  -28.2041   88.9392   16.5368 H   0  0  0  0  0  0  0  0  0  0  0  0
  -29.3896   90.0672   16.7147 H   0  0  0  0  0  0  0  0  0  0  0  0
  -28.9904   89.5225   15.2136 H   0  0  0  0  0  0  0  0  0  0  0  0
  1  2  1  0  0  0  0
  1  3  2  0  0  0  0
  1  4  1  0  0  0  0
  4  5  1  0  0  0  0
  4 13  2  0  0  0  0
  5  6  1  0  0  0  0
  5 21  1  0  0  0  0
  5 22  1  0  0  0  0
  6  7  1  0  0  0  0
  6 20  1  0  0  0  0
  6 23  1  6  0  0  0
  7  8  1  0  0  0  0
  7 12  1  0  0  0  0
  7 24  1  1  0  0  0
  8  9  1  0  0  0  0
  8 25  1  0  0  0  0
  9 10  2  0  0  0  0
  9 11  1  0  0  0  0
 11 26  1  0  0  0  0
 11 27  1  0  0  0  0
 11 28  1  0  0  0  0
 12 13  1  0  0  0  0
 12 14  1  0  0  0  0
 12 29  1  6  0  0  0
 13 30  1  0  0  0  0
 14 15  1  0  0  0  0
 15 16  1  0  0  0  0
 15 17  1  0  0  0  0
 15 31  1  0  0  0  0
 16 19  1  0  0  0  0
 16 32  1  0  0  0  0
 16 33  1  0  0  0  0
 17 18  1  0  0  0  0
 17 34  1  0  0  0  0
 17 35  1  0  0  0  0
 18 36  1  0  0  0  0
 18 37  1  0  0  0  0
 18 38  1  0  0  0  0
 19 39  1  0  0  0  0
 19 40  1  0  0  0  0
 19 41  1  0  0  0  0
 20 42  1  0  0  0  0
 20 43  1  0  0  0  0
 20 44  1  0  0  0  0
M  CHG  2   2  -1  20   1
M  END
