4x60_ligand
 OpenBabel08222323353D

 54 57  0  0  1  0  0  0  0  0999 V2000
   22.6980  -51.8800   -9.5380 C   0  0  0  0  0  0  0  0  0  0  0  0
   21.9690  -50.2190  -11.0960 C   0  0  0  0  0  0  0  0  0  0  0  0
   23.2550  -50.1780  -11.6640 C   0  0  0  0  0  0  0  0  0  0  0  0
   24.2580  -51.0130  -11.1410 C   0  0  0  0  0  0  0  0  0  0  0  0
   22.6940  -44.5410  -10.6490 C   0  0  0  0  0  0  0  0  0  0  0  0
   23.1820  -43.2140  -10.1550 C   0  0  0  0  0  0  0  0  0  0  0  0
   23.0950  -43.1370   -8.7550 C   0  0  0  0  0  0  0  0  0  0  0  0
   23.8720  -42.1720   -8.0960 C   0  0  0  0  0  0  0  0  0  0  0  0
   23.8280  -42.0550   -6.7060 C   0  0  0  0  0  0  0  0  0  0  0  0
   23.0060  -42.8920   -5.9570 C   0  0  0  0  0  0  0  0  0  0  0  0
   22.2240  -43.8490   -6.5960 C   0  0  0  0  0  0  0  0  0  0  0  0
   22.2590  -43.9850   -7.9940 C   0  0  0  0  0  0  0  0  0  0  0  0
   21.4540  -44.9730   -8.5730 C   0  0  0  0  0  0  0  0  0  0  0  0
   21.3950  -44.8900  -10.0420 N   0  3  2  0  0  0  0  0  0  0  0  0
   21.0110  -46.2030  -10.5670 C   0  0  0  0  0  0  0  0  0  0  0  0
   19.5250  -46.4890  -10.3170 C   0  0  1  0  0  0  0  0  0  0  0  0
   18.7520  -45.4130  -10.8630 O   0  0  0  0  0  0  0  0  0  0  0  0
   19.1220  -47.8450  -10.9480 C   0  0  0  0  0  0  0  0  0  0  0  0
   20.1710  -48.8260  -10.6350 N   0  0  0  0  0  0  0  0  0  0  0  0
   20.9510  -49.3820  -11.5840 C   0  0  0  0  0  0  0  0  0  0  0  0
   20.8130  -49.1640  -12.7950 O   0  0  0  0  0  0  0  0  0  0  0  0
   21.7090  -51.0450  -10.0550 N   0  0  0  0  0  0  0  0  0  0  0  0
   23.9760  -51.8390  -10.1050 N   0  0  0  0  0  0  0  0  0  0  0  0
   25.5030  -51.0060  -11.6550 N   0  0  0  0  0  0  0  0  0  0  0  0
   26.6070  -51.7870  -11.0510 C   0  0  0  0  0  0  0  0  0  0  0  0
   27.2710  -51.0390   -9.9030 C   0  0  0  0  0  0  0  0  0  0  0  0
   28.5570  -51.3460  -10.5250 O   0  0  0  0  0  0  0  0  0  0  0  0
   27.9090  -51.5750  -11.8110 C   0  0  0  0  0  0  0  0  0  0  0  0
   22.4810  -52.5482   -8.7125 H   0  0  0  0  0  0  0  0  0  0  0  0
   23.4696  -49.5127  -12.4925 H   0  0  0  0  0  0  0  0  0  0  0  0
   23.4314  -45.3145  -10.3884 H   0  0  0  0  0  0  0  0  0  0  0  0
   22.5793  -44.4972  -11.7421 H   0  0  0  0  0  0  0  0  0  0  0  0
   22.5675  -42.4166  -10.5983 H   0  0  0  0  0  0  0  0  0  0  0  0
   24.2308  -43.0803  -10.4584 H   0  0  0  0  0  0  0  0  0  0  0  0
   24.5115  -41.5122   -8.6712 H   0  0  0  0  0  0  0  0  0  0  0  0
   24.4366  -41.3091   -6.2076 H   0  0  0  0  0  0  0  0  0  0  0  0
   22.9751  -42.7984   -4.8775 H   0  0  0  0  0  0  0  0  0  0  0  0
   21.5815  -44.4959   -6.0097 H   0  0  0  0  0  0  0  0  0  0  0  0
   20.4334  -44.8685   -8.1763 H   0  0  0  0  0  0  0  0  0  0  0  0
   21.8564  -45.9583   -8.2950 H   0  0  0  0  0  0  0  0  0  0  0  0
   20.7099  -44.1984  -10.3037 H   0  0  0  0  0  0  0  0  0  0  0  0
   21.6136  -46.9779  -10.0706 H   0  0  0  0  0  0  0  0  0  0  0  0
   21.2034  -46.2264  -11.6498 H   0  0  0  0  0  0  0  0  0  0  0  0
   19.3469  -46.5410   -9.2328 H   0  0  0  0  0  0  0  0  0  0  0  0
   17.8289  -45.5801  -10.7135 H   0  0  0  0  0  0  0  0  0  0  0  0
   19.0281  -47.7352  -12.0385 H   0  0  0  0  0  0  0  0  0  0  0  0
   18.1617  -48.1801  -10.5291 H   0  0  0  0  0  0  0  0  0  0  0  0
   20.3116  -49.0913   -9.6812 H   0  0  0  0  0  0  0  0  0  0  0  0
   25.6932  -50.4399  -12.4942 H   0  0  0  0  0  0  0  0  0  0  0  0
   26.3110  -52.8281  -10.8549 H   0  0  0  0  0  0  0  0  0  0  0  0
   27.1211  -51.4936   -8.9126 H   0  0  0  0  0  0  0  0  0  0  0  0
   27.0300  -49.9668   -9.8547 H   0  0  0  0  0  0  0  0  0  0  0  0
   27.9092  -50.7055  -12.4847 H   0  0  0  0  0  0  0  0  0  0  0  0
   28.2709  -52.4602  -12.3545 H   0  0  0  0  0  0  0  0  0  0  0  0
  1 23  1  0  0  0  0
  1 29  1  0  0  0  0
  2  3  2  0  0  0  0
  2 22  1  0  0  0  0
  3  4  1  0  0  0  0
  3 30  1  0  0  0  0
  4 23  2  0  0  0  0
  4 24  1  0  0  0  0
  5  6  1  0  0  0  0
  5 31  1  0  0  0  0
  5 32  1  0  0  0  0
  6  7  1  0  0  0  0
  6 33  1  0  0  0  0
  6 34  1  0  0  0  0
  7  8  2  0  0  0  0
  8  9  1  0  0  0  0
  8 35  1  0  0  0  0
  9 36  1  0  0  0  0
 10  9  2  0  0  0  0
 10 37  1  0  0  0  0
 11 10  1  0  0  0  0
 11 38  1  0  0  0  0
 12  7  1  0  0  0  0
 12 11  2  0  0  0  0
 13 12  1  0  0  0  0
 13 39  1  0  0  0  0
 13 40  1  0  0  0  0
 14  5  1  0  0  0  0
 14 13  1  0  0  0  0
 14 41  1  6  0  0  0
 15 14  1  0  0  0  0
 15 42  1  0  0  0  0
 15 43  1  0  0  0  0
 16 15  1  0  0  0  0
 16 17  1  0  0  0  0
 16 44  1  1  0  0  0
 17 45  1  0  0  0  0
 18 16  1  0  0  0  0
 18 46  1  0  0  0  0
 18 47  1  0  0  0  0
 19 18  1  0  0  0  0
 19 20  1  0  0  0  0
 19 48  1  0  0  0  0
 20  2  1  0  0  0  0
 20 21  2  0  0  0  0
 22  1  2  0  0  0  0
 24 25  1  0  0  0  0
 24 49  1  0  0  0  0
 25 26  1  0  0  0  0
 25 28  1  0  0  0  0
 25 50  1  0  0  0  0
 26 27  1  0  0  0  0
 26 51  1  0  0  0  0
 26 52  1  0  0  0  0
 27 28  1  0  0  0  0
 28 53  1  0  0  0  0
 28 54  1  0  0  0  0
M  CHG  1  14   1
M  END
