4x61_ligand
 OpenBabel08222323353D

 54 57  0  0  1  0  0  0  0  0999 V2000
   22.6510  -51.8580   -9.4550 C   0  0  0  0  0  0  0  0  0  0  0  0
   21.9380  -50.2840  -11.0900 C   0  0  0  0  0  0  0  0  0  0  0  0
   23.2330  -50.2620  -11.6190 C   0  0  0  0  0  0  0  0  0  0  0  0
   24.2320  -51.0540  -11.0560 C   0  0  0  0  0  0  0  0  0  0  0  0
   22.7520  -44.4700  -10.7190 C   0  0  0  0  0  0  0  0  0  0  0  0
   23.3010  -43.1850  -10.1290 C   0  0  0  0  0  0  0  0  0  0  0  0
   23.1310  -43.1450   -8.7430 C   0  0  0  0  0  0  0  0  0  0  0  0
   23.8130  -42.1520   -8.0340 C   0  0  0  0  0  0  0  0  0  0  0  0
   23.6900  -42.0550   -6.6490 C   0  0  0  0  0  0  0  0  0  0  0  0
   22.8750  -42.9580   -5.9650 C   0  0  0  0  0  0  0  0  0  0  0  0
   22.1870  -43.9530   -6.6600 C   0  0  0  0  0  0  0  0  0  0  0  0
   22.3060  -44.0540   -8.0490 C   0  0  0  0  0  0  0  0  0  0  0  0
   21.5990  -45.0730   -8.6970 C   0  0  0  0  0  0  0  0  0  0  0  0
   21.4480  -44.8130  -10.1400 N   0  3  2  0  0  0  0  0  0  0  0  0
   20.9930  -46.0270  -10.8270 C   0  0  0  0  0  0  0  0  0  0  0  0
   19.5560  -46.4180  -10.4680 C   0  0  1  0  0  0  0  0  0  0  0  0
   18.6720  -45.4030  -10.9380 O   0  0  0  0  0  0  0  0  0  0  0  0
   19.2150  -47.7730  -11.1070 C   0  0  0  0  0  0  0  0  0  0  0  0
   20.2740  -48.7360  -10.7550 N   0  0  0  0  0  0  0  0  0  0  0  0
   20.9420  -49.4860  -11.6490 C   0  0  0  0  0  0  0  0  0  0  0  0
   20.7280  -49.4880  -12.8610 O   0  0  0  0  0  0  0  0  0  0  0  0
   21.6520  -51.0610  -10.0300 N   0  0  0  0  0  0  0  0  0  0  0  0
   23.9480  -51.8310   -9.9940 N   0  0  0  0  0  0  0  0  0  0  0  0
   25.4660  -51.0300  -11.5680 N   0  0  0  0  0  0  0  0  0  0  0  0
   26.5470  -51.9240  -11.1060 C   0  0  0  0  0  0  0  0  0  0  0  0
   27.3110  -51.2860   -9.9700 C   0  0  0  0  0  0  0  0  0  0  0  0
   28.4490  -51.1120  -10.8430 O   0  0  0  0  0  0  0  0  0  0  0  0
   27.7670  -51.7200  -11.9640 C   0  0  0  0  0  0  0  0  0  0  0  0
   22.4252  -52.4889   -8.6029 H   0  0  0  0  0  0  0  0  0  0  0  0
   23.4598  -49.6278  -12.4683 H   0  0  0  0  0  0  0  0  0  0  0  0
   23.4594  -45.2875  -10.5160 H   0  0  0  0  0  0  0  0  0  0  0  0
   22.6387  -44.3446  -11.8059 H   0  0  0  0  0  0  0  0  0  0  0  0
   22.7733  -42.3310  -10.5787 H   0  0  0  0  0  0  0  0  0  0  0  0
   24.3743  -43.1156  -10.3597 H   0  0  0  0  0  0  0  0  0  0  0  0
   24.4441  -41.4500   -8.5669 H   0  0  0  0  0  0  0  0  0  0  0  0
   24.2240  -41.2831   -6.1067 H   0  0  0  0  0  0  0  0  0  0  0  0
   22.7760  -42.8859   -4.8879 H   0  0  0  0  0  0  0  0  0  0  0  0
   21.5572  -44.6510   -6.1203 H   0  0  0  0  0  0  0  0  0  0  0  0
   20.5995  -45.1540   -8.2449 H   0  0  0  0  0  0  0  0  0  0  0  0
   22.1403  -46.0211   -8.5624 H   0  0  0  0  0  0  0  0  0  0  0  0
   20.7908  -44.0622  -10.2833 H   0  0  0  0  0  0  0  0  0  0  0  0
   21.6607  -46.8565  -10.5512 H   0  0  0  0  0  0  0  0  0  0  0  0
   21.0487  -45.8568  -11.9123 H   0  0  0  0  0  0  0  0  0  0  0  0
   19.4619  -46.5025   -9.3753 H   0  0  0  0  0  0  0  0  0  0  0  0
   17.7777  -45.6375  -10.7195 H   0  0  0  0  0  0  0  0  0  0  0  0
   19.1607  -47.6645  -12.2003 H   0  0  0  0  0  0  0  0  0  0  0  0
   18.2471  -48.1301  -10.7254 H   0  0  0  0  0  0  0  0  0  0  0  0
   20.5110  -48.8381   -9.7889 H   0  0  0  0  0  0  0  0  0  0  0  0
   25.6729  -50.3569  -12.3197 H   0  0  0  0  0  0  0  0  0  0  0  0
   26.2059  -52.9591  -10.9568 H   0  0  0  0  0  0  0  0  0  0  0  0
   27.4954  -51.9573   -9.1184 H   0  0  0  0  0  0  0  0  0  0  0  0
   26.8742  -50.3441   -9.6066 H   0  0  0  0  0  0  0  0  0  0  0  0
   27.6094  -51.0421  -12.8158 H   0  0  0  0  0  0  0  0  0  0  0  0
   28.2286  -52.6534  -12.3186 H   0  0  0  0  0  0  0  0  0  0  0  0
  1 23  1  0  0  0  0
  1 29  1  0  0  0  0
  2  3  2  0  0  0  0
  2 22  1  0  0  0  0
  3  4  1  0  0  0  0
  3 30  1  0  0  0  0
  4 23  2  0  0  0  0
  4 24  1  0  0  0  0
  5  6  1  0  0  0  0
  5 31  1  0  0  0  0
  5 32  1  0  0  0  0
  6  7  1  0  0  0  0
  6 33  1  0  0  0  0
  6 34  1  0  0  0  0
  7  8  2  0  0  0  0
  8  9  1  0  0  0  0
  8 35  1  0  0  0  0
  9 36  1  0  0  0  0
 10  9  2  0  0  0  0
 10 37  1  0  0  0  0
 11 10  1  0  0  0  0
 11 38  1  0  0  0  0
 12  7  1  0  0  0  0
 12 11  2  0  0  0  0
 13 12  1  0  0  0  0
 13 39  1  0  0  0  0
 13 40  1  0  0  0  0
 14  5  1  0  0  0  0
 14 13  1  0  0  0  0
 14 41  1  6  0  0  0
 15 14  1  0  0  0  0
 15 42  1  0  0  0  0
 15 43  1  0  0  0  0
 16 15  1  0  0  0  0
 16 17  1  0  0  0  0
 16 44  1  1  0  0  0
 17 45  1  0  0  0  0
 18 16  1  0  0  0  0
 18 46  1  0  0  0  0
 18 47  1  0  0  0  0
 19 18  1  0  0  0  0
 19 20  1  0  0  0  0
 19 48  1  0  0  0  0
 20  2  1  0  0  0  0
 20 21  2  0  0  0  0
 22  1  2  0  0  0  0
 24 25  1  0  0  0  0
 24 49  1  0  0  0  0
 25 26  1  0  0  0  0
 25 28  1  0  0  0  0
 25 50  1  0  0  0  0
 26 27  1  0  0  0  0
 26 51  1  0  0  0  0
 26 52  1  0  0  0  0
 27 28  1  0  0  0  0
 28 53  1  0  0  0  0
 28 54  1  0  0  0  0
M  CHG  1  14   1
M  END
