4x69_ligand
 OpenBabel08222323353D

 37 37  0  0  1  0  0  0  0  0999 V2000
   13.1300    5.8960    4.6280 C   0  0  0  0  0  0  0  0  0  0  0  0
   11.9840    6.3310    4.8490 O   0  0  0  0  0  0  0  0  0  0  0  0
   14.2440    6.5000    5.1250 N   0  0  0  0  0  0  0  0  0  0  0  0
   14.0500    7.7250    5.9370 C   0  0  2  0  0  0  0  0  0  0  0  0
   15.0510    8.8250    5.6390 C   0  0  0  0  0  0  0  0  0  0  0  0
   14.7990    9.9850    6.2780 N   0  0  0  0  0  0  0  0  0  0  0  0
   16.0130    8.6680    4.8830 O   0  0  0  0  0  0  0  0  0  0  0  0
   15.4590    5.7010    5.4070 C   0  0  0  0  0  0  0  0  0  0  0  0
   15.3410    5.2100    6.8750 C   0  0  1  0  0  0  0  0  0  0  0  0
   15.2840    6.4450    7.8160 C   0  0  0  0  0  0  0  0  0  0  0  0
   14.0830    7.3350    7.4250 C   0  0  0  0  0  0  0  0  0  0  0  0
   14.1150    4.4220    6.9990 N   0  3  0  0  0  0  0  0  0  0  0  0
   12.5300    3.6130    8.7180 S   0  0  0  0  0  0  0  0  0  0  0  0
   13.9860    3.8440    8.2720 O   0  0  0  0  0  0  0  0  0  0  0  0
   12.7050    2.7860    9.8750 O   0  0  0  0  0  1  0  0  0  0  0  0
   11.9830    4.8860    9.0140 O   0  0  0  0  0  1  0  0  0  0  0  0
   11.9590    2.8850    7.6420 O   0  0  0  0  0  1  0  0  0  0  0  0
   14.4940   13.1370    5.8580 C   0  0  0  0  0  0  0  0  0  0  0  0
   15.2680   12.0300    5.1130 C   0  0  0  0  0  0  0  0  0  0  0  0
   15.6800   11.0590    6.1140 O   0  0  0  0  0  0  0  0  0  0  0  0
   13.2446    5.0022    4.0165 H   0  0  0  0  0  0  0  0  0  0  0  0
   13.0508    8.1236    5.7073 H   0  0  0  0  0  0  0  0  0  0  0  0
   13.9924   10.0765    6.8619 H   0  0  0  0  0  0  0  0  0  0  0  0
   16.3580    6.3233    5.2868 H   0  0  0  0  0  0  0  0  0  0  0  0
   15.5141    4.8411    4.7232 H   0  0  0  0  0  0  0  0  0  0  0  0
   16.2101    4.5878    7.1346 H   0  0  0  0  0  0  0  0  0  0  0  0
   16.2151    7.0227    7.7198 H   0  0  0  0  0  0  0  0  0  0  0  0
   15.1673    6.1081    8.8566 H   0  0  0  0  0  0  0  0  0  0  0  0
   13.1573    6.7892    7.6599 H   0  0  0  0  0  0  0  0  0  0  0  0
   14.1269    8.2571    8.0232 H   0  0  0  0  0  0  0  0  0  0  0  0
   14.1291    3.6878    6.3085 H   0  0  0  0  0  0  0  0  0  0  0  0
   13.3235    5.0238    6.8335 H   0  0  0  0  0  0  0  0  0  0  0  0
   14.1601   13.8989    5.1382 H   0  0  0  0  0  0  0  0  0  0  0  0
   15.1509   13.6032    6.6070 H   0  0  0  0  0  0  0  0  0  0  0  0
   13.6190   12.6984    6.3599 H   0  0  0  0  0  0  0  0  0  0  0  0
   16.1503   12.4558    4.6128 H   0  0  0  0  0  0  0  0  0  0  0  0
   14.6184   11.5510    4.3657 H   0  0  0  0  0  0  0  0  0  0  0  0
  1  2  2  0  0  0  0
  1 21  1  0  0  0  0
  3  1  1  0  0  0  0
  3  8  1  0  0  0  0
  4  3  1  0  0  0  0
  4 11  1  0  0  0  0
  4 22  1  6  0  0  0
  5  4  1  0  0  0  0
  5  7  2  0  0  0  0
  6  5  1  0  0  0  0
  6 23  1  0  0  0  0
  8  9  1  0  0  0  0
  8 24  1  0  0  0  0
  8 25  1  0  0  0  0
  9 12  1  0  0  0  0
  9 26  1  1  0  0  0
 10  9  1  0  0  0  0
 10 27  1  0  0  0  0
 10 28  1  0  0  0  0
 11 10  1  0  0  0  0
 11 29  1  0  0  0  0
 11 30  1  0  0  0  0
 12 14  1  0  0  0  0
 12 31  1  0  0  0  0
 12 32  1  0  0  0  0
 13 15  1  0  0  0  0
 13 16  1  0  0  0  0
 13 17  1  0  0  0  0
 14 13  1  0  0  0  0
 18 33  1  0  0  0  0
 18 34  1  0  0  0  0
 18 35  1  0  0  0  0
 19 18  1  0  0  0  0
 19 20  1  0  0  0  0
 19 36  1  0  0  0  0
 19 37  1  0  0  0  0
 20  6  1  0  0  0  0
M  CHG  1  12   1
M  END
