4x6k_ligand
 OpenBabel08222323353D

 29 29  0  0  1  0  0  0  0  0999 V2000
   37.6580   13.6580  -11.5910 C   0  0  0  0  0  0  0  0  0  0  0  0
   38.0340   13.9870  -13.0030 C   0  0  0  0  0  0  0  0  0  0  0  0
   37.8870   15.1020  -13.4980 O   0  0  0  0  0  0  0  0  0  0  0  0
   38.6320   13.0240  -13.6180 N   0  0  0  0  0  0  0  0  0  0  0  0
   38.9890   13.1480  -14.9670 C   0  0  1  0  0  0  0  0  0  0  0  0
   40.4780   13.3230  -14.9110 N   0  3  0  0  0  0  0  0  0  0  0  0
   40.8710   13.4230  -16.3270 C   0  0  0  0  0  0  0  0  0  0  0  0
   40.6410   12.0600  -17.0220 C   0  0  2  0  0  0  0  0  0  0  0  0
   41.3330   11.8680  -18.3780 C   0  0  0  0  0  0  0  0  0  0  0  0
   40.6600   11.3410  -19.3190 O   0  5  0  0  0  0  0  0  0  0  0  0
   42.5910   12.1800  -18.4560 O   0  0  0  0  0  0  0  0  0  0  0  0
   39.1060   11.8920  -17.0970 C   0  0  2  0  0  0  0  0  0  0  0  0
   38.5400   12.9640  -17.7870 O   0  0  0  0  0  0  0  0  0  0  0  0
   38.6230   11.8690  -15.6520 C   0  0  2  0  0  0  0  0  0  0  0  0
   37.2220   11.6000  -15.5900 O   0  0  0  0  0  0  0  0  0  0  0  0
   37.8854   12.6011  -11.3878 H   0  0  0  0  0  0  0  0  0  0  0  0
   36.5820   13.8357  -11.4471 H   0  0  0  0  0  0  0  0  0  0  0  0
   38.2304   14.2954  -10.9011 H   0  0  0  0  0  0  0  0  0  0  0  0
   38.8433   12.1792  -13.1264 H   0  0  0  0  0  0  0  0  0  0  0  0
   38.4981   14.0043  -15.4526 H   0  0  0  0  0  0  0  0  0  0  0  0
   40.9170   12.5293  -14.4713 H   0  0  0  0  0  0  0  0  0  0  0  0
   40.7227   14.1627  -14.4099 H   0  0  0  0  0  0  0  0  0  0  0  0
   41.9349   13.6942  -16.3943 H   0  0  0  0  0  0  0  0  0  0  0  0
   40.2638   14.1947  -16.8227 H   0  0  0  0  0  0  0  0  0  0  0  0
   41.0412   11.2774  -16.3607 H   0  0  0  0  0  0  0  0  0  0  0  0
   38.8457   10.9506  -17.6031 H   0  0  0  0  0  0  0  0  0  0  0  0
   37.5976   12.8511  -17.8273 H   0  0  0  0  0  0  0  0  0  0  0  0
   39.1420   11.0502  -15.1322 H   0  0  0  0  0  0  0  0  0  0  0  0
   36.9425   11.5902  -14.6822 H   0  0  0  0  0  0  0  0  0  0  0  0
  1  2  1  0  0  0  0
  1 16  1  0  0  0  0
  1 17  1  0  0  0  0
  1 18  1  0  0  0  0
  2  3  2  0  0  0  0
  2  4  1  0  0  0  0
  4  5  1  0  0  0  0
  4 19  1  0  0  0  0
  5  6  1  0  0  0  0
  5 14  1  0  0  0  0
  5 20  1  6  0  0  0
  6  7  1  0  0  0  0
  6 21  1  0  0  0  0
  6 22  1  0  0  0  0
  7  8  1  0  0  0  0
  7 23  1  0  0  0  0
  7 24  1  0  0  0  0
  8  9  1  0  0  0  0
  8 12  1  0  0  0  0
  8 25  1  1  0  0  0
  9 10  1  0  0  0  0
  9 11  2  0  0  0  0
 12 13  1  0  0  0  0
 12 14  1  0  0  0  0
 12 26  1  6  0  0  0
 13 27  1  0  0  0  0
 14 15  1  0  0  0  0
 14 28  1  1  0  0  0
 15 29  1  0  0  0  0
M  CHG  2   6   1  10  -1
M  END
