4x6s_ligand
 OpenBabel08222323353D

183189  0  0  1  0  0  0  0  0999 V2000
    4.1030   -8.1550   -2.6760 N   0  0  0  0  0  0  0  0  0  0  0  0
    3.0970   -7.3350   -2.0020 C   0  0  2  0  0  0  0  0  0  0  0  0
    3.7260   -6.4360   -0.9400 C   0  0  0  0  0  0  0  0  0  0  0  0
    4.9380   -6.4390   -0.7410 O   0  0  0  0  0  0  0  0  0  0  0  0
    2.0100   -8.2200   -1.3780 C   0  0  0  0  0  0  0  0  0  0  0  0
    2.3250   -8.8280   -0.0080 C   0  0  0  0  0  0  0  0  0  0  0  0
    1.7970   -8.4500    1.2000 C   0  0  0  0  0  0  0  0  0  0  0  0
    3.2350   -9.9010    0.2780 C   0  0  0  0  0  0  0  0  0  0  0  0
    2.3150   -9.2290    2.2170 N   0  0  0  0  0  0  0  0  0  0  0  0
    3.2000  -10.1220    1.6760 C   0  0  0  0  0  0  0  0  0  0  0  0
    4.0670  -10.6970   -0.5080 C   0  0  0  0  0  0  0  0  0  0  0  0
    3.9670  -11.1030    2.2940 C   0  0  0  0  0  0  0  0  0  0  0  0
    4.8260  -11.6700    0.1080 C   0  0  0  0  0  0  0  0  0  0  0  0
    4.7720  -11.8650    1.4950 C   0  0  0  0  0  0  0  0  0  0  0  0
    2.9030   -5.6180   -0.3060 N   0  0  0  0  0  0  0  0  0  0  0  0
    3.3360   -4.8140    0.8340 C   0  0  2  0  0  0  0  0  0  0  0  0
    2.4580   -5.1450    2.0200 C   0  0  0  0  0  0  0  0  0  0  0  0
    1.2620   -4.9030    1.9960 O   0  0  0  0  0  0  0  0  0  0  0  0
    3.2800   -3.3210    0.5100 C   0  0  0  0  0  0  0  0  0  0  0  0
    4.0840   -2.9350   -0.6990 C   0  0  0  0  0  0  0  0  0  0  0  0
    5.4630   -3.0160   -0.6850 C   0  0  0  0  0  0  0  0  0  0  0  0
    3.4600   -2.5030   -1.8560 C   0  0  0  0  0  0  0  0  0  0  0  0
    6.2000   -2.6570   -1.7960 C   0  0  0  0  0  0  0  0  0  0  0  0
    4.2000   -2.1570   -2.9810 C   0  0  0  0  0  0  0  0  0  0  0  0
    5.5680   -2.2320   -2.9450 C   0  0  0  0  0  0  0  0  0  0  0  0
    3.0430   -5.7390    3.0410 N   0  0  0  0  0  0  0  0  0  0  0  0
    2.2630   -6.1210    4.2000 C   0  0  2  0  0  0  0  0  0  0  0  0
    1.6650   -4.8330    4.7710 C   0  0  0  0  0  0  0  0  0  0  0  0
    2.3170   -3.7870    4.7670 O   0  0  0  0  0  0  0  0  0  0  0  0
    3.1320   -6.8810    5.2240 C   0  0  0  0  0  0  0  0  0  0  0  0
    2.6300   -6.8420    6.6590 C   0  0  0  0  0  0  0  0  0  0  0  0
    3.2300   -5.6740    7.4500 C   0  0  0  0  0  0  0  0  0  0  0  0
    4.4650   -5.4490    7.3550 O   0  5  0  0  0  0  0  0  0  0  0  0
    2.4600   -4.9700    8.1530 O   0  0  0  0  0  0  0  0  0  0  0  0
    0.4000   -4.8740    5.1690 N   0  0  0  0  0  0  0  0  0  0  0  0
   -0.2370   -3.6760    5.6730 C   0  0  0  0  0  0  0  0  0  0  0  0
   -1.0370   -2.9680    4.6060 C   0  0  0  0  0  0  0  0  0  0  0  0
   -1.9750   -2.2410    4.9380 O   0  0  0  0  0  0  0  0  0  0  0  0
   -0.8870   -3.2980    3.3900 N   0  0  0  0  0  0  0  0  0  0  0  0
   -1.3310   -2.5260    2.2670 C   0  0  1  0  0  0  0  0  0  0  0  0
   -0.2050   -1.6620    1.6850 C   0  0  0  0  0  0  0  0  0  0  0  0
    0.1460   -0.5060    2.6130 C   0  0  0  0  0  0  0  0  0  0  0  0
   -0.5620    0.6780    2.5550 C   0  0  0  0  0  0  0  0  0  0  0  0
   -0.2370    1.7240    3.4110 C   0  0  0  0  0  0  0  0  0  0  0  0
    1.1590   -0.6280    3.5520 C   0  0  0  0  0  0  0  0  0  0  0  0
    1.4770    0.4140    4.4130 C   0  0  0  0  0  0  0  0  0  0  0  0
    0.7770    1.6040    4.3510 C   0  0  0  0  0  0  0  0  0  0  0  0
    1.1240    2.7510    5.2850 C   0  0  0  0  0  0  0  0  0  0  0  0
   -0.0670    3.6200    5.6700 C   0  0  0  0  0  0  0  0  0  0  0  0
   -1.1720    3.1040    5.9620 O   0  5  0  0  0  0  0  0  0  0  0  0
    0.1220    4.8680    5.6980 O   0  0  0  0  0  0  0  0  0  0  0  0
   -2.0560   -3.3380    1.2530 C   0  0  0  0  0  0  0  0  0  0  0  0
   -1.7970   -4.5280    1.2090 O   0  0  0  0  0  0  0  0  0  0  0  0
   -2.7780   -3.2180    0.2150 N   0  0  0  0  0  0  0  0  0  0  0  0
   -3.5790   -4.0040   -0.7260 C   0  0  2  0  0  0  0  0  0  0  0  0
   -2.9570   -4.1690   -2.0990 C   0  0  0  0  0  0  0  0  0  0  0  0
   -3.5500   -4.8150   -2.9670 O   0  0  0  0  0  0  0  0  0  0  0  0
   -4.9630   -3.3690   -0.9030 C   0  0  0  0  0  0  0  0  0  0  0  0
   -5.8230   -3.4720    0.3410 C   0  0  0  0  0  0  0  0  0  0  0  0
   -6.3470   -4.5750    0.5890 O   0  5  0  0  0  0  0  0  0  0  0  0
   -5.9480   -2.4740    1.0850 O   0  0  0  0  0  0  0  0  0  0  0  0
   -1.7710   -3.6010   -2.2970 N   0  0  0  0  0  0  0  0  0  0  0  0
   -1.0670   -3.7300   -3.5670 C   0  0  2  0  0  0  0  0  0  0  0  0
   -0.9630   -5.1970   -3.9500 C   0  0  0  0  0  0  0  0  0  0  0  0
   -0.4420   -6.0120   -3.1930 O   0  0  0  0  0  0  0  0  0  0  0  0
    0.3350   -3.1200   -3.4790 C   0  0  0  0  0  0  0  0  0  0  0  0
    0.3110   -1.6640   -3.1030 C   0  0  0  0  0  0  0  0  0  0  0  0
   -0.1310   -1.3110   -2.0160 O   0  0  0  0  0  0  0  0  0  0  0  0
    0.8440   -0.8140   -3.9710 N   0  0  0  0  0  0  0  0  0  0  0  0
   -1.4910   -5.5120   -5.1250 N   0  0  0  0  0  0  0  0  0  0  0  0
   -1.4810   -6.8520   -5.6640 C   0  0  2  0  0  0  0  0  0  0  0  0
   -0.8460   -6.8320   -7.0520 C   0  0  0  0  0  0  0  0  0  0  0  0
   -1.4060   -6.2880   -8.0020 O   0  0  0  0  0  0  0  0  0  0  0  0
   -2.9310   -7.4330   -5.7610 C   0  0  2  0  0  0  0  0  0  0  0  0
   -3.5860   -7.3810   -4.4850 O   0  0  0  0  0  0  0  0  0  0  0  0
   -2.9240   -8.8730   -6.3010 C   0  0  0  0  0  0  0  0  0  0  0  0
    0.3170   -7.4410   -7.1890 N   0  0  0  0  0  0  0  0  0  0  0  0
    0.9790   -7.3890   -8.4640 C   0  0  2  0  0  0  0  0  0  0  0  0
    1.9470   -8.5560   -8.5790 C   0  0  0  0  0  0  0  0  0  0  0  0
    2.2730   -9.1740   -7.5770 O   0  0  0  0  0  0  0  0  0  0  0  0
    1.6650   -6.0330   -8.6300 C   0  0  0  0  0  0  0  0  0  0  0  0
    2.6840   -5.7330   -7.5790 C   0  0  0  0  0  0  0  0  0  0  0  0
    2.3060   -5.2020   -6.3670 C   0  0  0  0  0  0  0  0  0  0  0  0
    4.0210   -5.9600   -7.8230 C   0  0  0  0  0  0  0  0  0  0  0  0
    3.2480   -4.9240   -5.3890 C   0  0  0  0  0  0  0  0  0  0  0  0
    4.9640   -5.6870   -6.8610 C   0  0  0  0  0  0  0  0  0  0  0  0
    4.5830   -5.1670   -5.6440 C   0  0  0  0  0  0  0  0  0  0  0  0
    2.3570   -8.9030   -9.8070 N   0  0  0  0  0  0  0  0  0  0  0  0
    3.3000  -10.0090   -9.9870 C   0  0  2  0  0  0  0  0  0  0  0  0
    4.6860   -9.6900   -9.4480 C   0  0  0  0  0  0  0  0  0  0  0  0
    5.5080   -9.3360  -10.3070 O   0  0  0  0  0  0  0  0  0  0  0  0
    3.3520  -10.1870  -11.5080 C   0  0  0  0  0  0  0  0  0  0  0  0
    2.1300   -9.5040  -12.0330 C   0  0  0  0  0  0  0  0  0  0  0  0
    1.9190   -8.3520  -11.0990 C   0  0  0  0  0  0  0  0  0  0  0  0
    3.0950   -8.4450   -4.6310 O   0  0  0  0  0  0  0  0  0  0  0  0
    5.0320   -9.7450   -8.1570 N   0  0  0  0  0  0  0  0  0  0  0  0
    6.3540   -9.3350   -7.7840 C   0  0  2  0  0  0  0  0  0  0  0  0
    7.3190  -10.3900   -8.2640 C   0  0  0  0  0  0  0  0  0  0  0  0
    7.0190  -11.5660   -8.1250 O   0  0  0  0  0  0  0  0  0  0  0  0
    8.4680  -10.0220   -8.8380 N   0  0  0  0  0  0  0  0  0  0  0  0
    6.4710   -9.2210   -6.2770 C   0  0  0  0  0  0  0  0  0  0  0  0
    5.5170  -10.5590   -5.5420 S   0  0  0  0  0  0  0  0  0  0  0  0
    4.7960   -9.9640   -3.9500 C   0  0  0  0  0  0  0  0  0  0  0  0
    4.0730   -8.6730   -3.9090 C   0  0  0  0  0  0  0  0  0  0  0  0
    4.9248   -8.3557   -2.1428 H   0  0  0  0  0  0  0  0  0  0  0  0
    2.6235   -6.6899   -2.7568 H   0  0  0  0  0  0  0  0  0  0  0  0
    1.8139   -9.0489   -2.0740 H   0  0  0  0  0  0  0  0  0  0  0  0
    1.1020   -7.6084   -1.2711 H   0  0  0  0  0  0  0  0  0  0  0  0
    1.0721   -7.6492    1.3382 H   0  0  0  0  0  0  0  0  0  0  0  0
    2.0751   -9.1507    3.2156 H   0  0  0  0  0  0  0  0  0  0  0  0
    4.1164  -10.5541   -1.5814 H   0  0  0  0  0  0  0  0  0  0  0  0
    3.9280  -11.2572    3.3663 H   0  0  0  0  0  0  0  0  0  0  0  0
    5.4767  -12.2959   -0.4919 H   0  0  0  0  0  0  0  0  0  0  0  0
    5.3836  -12.6389    1.9446 H   0  0  0  0  0  0  0  0  0  0  0  0
    1.9550   -5.5476   -0.6165 H   0  0  0  0  0  0  0  0  0  0  0  0
    4.3760   -5.0761    1.0780 H   0  0  0  0  0  0  0  0  0  0  0  0
    3.6654   -2.7629    1.3760 H   0  0  0  0  0  0  0  0  0  0  0  0
    2.2306   -3.0433    0.3323 H   0  0  0  0  0  0  0  0  0  0  0  0
    5.9713   -3.3647    0.2067 H   0  0  0  0  0  0  0  0  0  0  0  0
    2.3786   -2.4333   -1.8857 H   0  0  0  0  0  0  0  0  0  0  0  0
    7.2823   -2.7097   -1.7645 H   0  0  0  0  0  0  0  0  0  0  0  0
    3.6968   -1.8291   -3.8834 H   0  0  0  0  0  0  0  0  0  0  0  0
    6.1509   -1.9581   -3.8169 H   0  0  0  0  0  0  0  0  0  0  0  0
    4.0251   -5.9258    3.0153 H   0  0  0  0  0  0  0  0  0  0  0  0
    1.4451   -6.7858    3.8853 H   0  0  0  0  0  0  0  0  0  0  0  0
    4.1408   -6.4430    5.2050 H   0  0  0  0  0  0  0  0  0  0  0  0
    3.1835   -7.9342    4.9107 H   0  0  0  0  0  0  0  0  0  0  0  0
    2.9039   -7.7843    7.1560 H   0  0  0  0  0  0  0  0  0  0  0  0
    1.5350   -6.7376    6.6487 H   0  0  0  0  0  0  0  0  0  0  0  0
   -0.1126   -5.7313    5.1208 H   0  0  0  0  0  0  0  0  0  0  0  0
    0.5389   -2.9920    6.0473 H   0  0  0  0  0  0  0  0  0  0  0  0
   -0.9110   -3.9523    6.4973 H   0  0  0  0  0  0  0  0  0  0  0  0
   -0.4232   -4.1635    3.2006 H   0  0  0  0  0  0  0  0  0  0  0  0
   -2.0746   -1.8186    2.6629 H   0  0  0  0  0  0  0  0  0  0  0  0
   -0.5299   -1.2564    0.7155 H   0  0  0  0  0  0  0  0  0  0  0  0
    0.6878   -2.2880    1.5400 H   0  0  0  0  0  0  0  0  0  0  0  0
   -1.3708    0.7918    1.8423 H   0  0  0  0  0  0  0  0  0  0  0  0
   -0.7883    2.6549    3.3427 H   0  0  0  0  0  0  0  0  0  0  0  0
    1.7145   -1.5567    3.6153 H   0  0  0  0  0  0  0  0  0  0  0  0
    2.2762    0.2938    5.1355 H   0  0  0  0  0  0  0  0  0  0  0  0
    1.8703    3.3880    4.7878 H   0  0  0  0  0  0  0  0  0  0  0  0
    1.5559    2.3295    6.2046 H   0  0  0  0  0  0  0  0  0  0  0  0
   -2.8109   -2.2548   -0.0517 H   0  0  0  0  0  0  0  0  0  0  0  0
   -3.7051   -5.0068   -0.2919 H   0  0  0  0  0  0  0  0  0  0  0  0
   -5.4796   -3.8782   -1.7299 H   0  0  0  0  0  0  0  0  0  0  0  0
   -4.8320   -2.3056   -1.1519 H   0  0  0  0  0  0  0  0  0  0  0  0
   -1.3525   -3.0733   -1.5578 H   0  0  0  0  0  0  0  0  0  0  0  0
   -1.6366   -3.1971   -4.3426 H   0  0  0  0  0  0  0  0  0  0  0  0
    0.8257   -3.2227   -4.4581 H   0  0  0  0  0  0  0  0  0  0  0  0
    0.9113   -3.6700   -2.7205 H   0  0  0  0  0  0  0  0  0  0  0  0
    0.8539    0.1655   -3.7699 H   0  0  0  0  0  0  0  0  0  0  0  0
    1.2358   -1.1528   -4.8264 H   0  0  0  0  0  0  0  0  0  0  0  0
   -1.9172   -4.7859   -5.6646 H   0  0  0  0  0  0  0  0  0  0  0  0
   -0.8840   -7.4969   -5.0025 H   0  0  0  0  0  0  0  0  0  0  0  0
   -3.5005   -6.8082   -6.4647 H   0  0  0  0  0  0  0  0  0  0  0  0
   -3.6356   -6.4786   -4.1923 H   0  0  0  0  0  0  0  0  0  0  0  0
   -3.9563   -9.2490   -6.3560 H   0  0  0  0  0  0  0  0  0  0  0  0
   -2.3356   -9.5141   -5.6281 H   0  0  0  0  0  0  0  0  0  0  0  0
   -2.4752   -8.8859   -7.3052 H   0  0  0  0  0  0  0  0  0  0  0  0
    0.7299   -7.9294   -6.4202 H   0  0  0  0  0  0  0  0  0  0  0  0
    0.2251   -7.4900   -9.2586 H   0  0  0  0  0  0  0  0  0  0  0  0
    0.8939   -5.2492   -8.5974 H   0  0  0  0  0  0  0  0  0  0  0  0
    2.1641   -6.0158   -9.6101 H   0  0  0  0  0  0  0  0  0  0  0  0
    1.2587   -4.9987   -6.1748 H   0  0  0  0  0  0  0  0  0  0  0  0
    4.3319   -6.3575   -8.7824 H   0  0  0  0  0  0  0  0  0  0  0  0
    2.9392   -4.5192   -4.4320 H   0  0  0  0  0  0  0  0  0  0  0  0
    6.0115   -5.8817   -7.0610 H   0  0  0  0  0  0  0  0  0  0  0  0
    5.3291   -4.9491   -4.8884 H   0  0  0  0  0  0  0  0  0  0  0  0
    2.9234  -10.9189   -9.4970 H   0  0  0  0  0  0  0  0  0  0  0  0
    3.3380  -11.2551  -11.7706 H   0  0  0  0  0  0  0  0  0  0  0  0
    4.2594   -9.7203  -11.9187 H   0  0  0  0  0  0  0  0  0  0  0  0
    1.2654  -10.1838  -12.0145 H   0  0  0  0  0  0  0  0  0  0  0  0
    2.2941   -9.1473  -13.0605 H   0  0  0  0  0  0  0  0  0  0  0  0
    2.5326   -7.4869  -11.3904 H   0  0  0  0  0  0  0  0  0  0  0  0
    0.8601   -8.0561  -11.0662 H   0  0  0  0  0  0  0  0  0  0  0  0
    4.3826  -10.0651   -7.4672 H   0  0  0  0  0  0  0  0  0  0  0  0
    6.5888   -8.3657   -8.2480 H   0  0  0  0  0  0  0  0  0  0  0  0
    9.1119  -10.7168   -9.1583 H   0  0  0  0  0  0  0  0  0  0  0  0
    8.6841   -9.0518   -8.9473 H   0  0  0  0  0  0  0  0  0  0  0  0
    6.0721   -8.2515   -5.9439 H   0  0  0  0  0  0  0  0  0  0  0  0
    7.5258   -9.3062   -5.9770 H   0  0  0  0  0  0  0  0  0  0  0  0
    5.6264   -9.8873   -3.2327 H   0  0  0  0  0  0  0  0  0  0  0  0
    4.0893  -10.7361   -3.6116 H   0  0  0  0  0  0  0  0  0  0  0  0
  1  2  1  0  0  0  0
  1104  1  0  0  0  0
  1105  1  0  0  0  0
  2  3  1  0  0  0  0
  2  5  1  0  0  0  0
  2106  1  6  0  0  0
  3  4  2  0  0  0  0
  3 15  1  0  0  0  0
  5  6  1  0  0  0  0
  5107  1  0  0  0  0
  5108  1  0  0  0  0
  6  7  2  0  0  0  0
  6  8  1  0  0  0  0
  7  9  1  0  0  0  0
  7109  1  0  0  0  0
  8 10  2  0  0  0  0
  8 11  1  0  0  0  0
  9 10  1  0  0  0  0
  9110  1  0  0  0  0
 10 12  1  0  0  0  0
 11 13  2  0  0  0  0
 11111  1  0  0  0  0
 12 14  2  0  0  0  0
 12112  1  0  0  0  0
 13 14  1  0  0  0  0
 13113  1  0  0  0  0
 14114  1  0  0  0  0
 15 16  1  0  0  0  0
 15115  1  0  0  0  0
 16 17  1  0  0  0  0
 16 19  1  0  0  0  0
 16116  1  1  0  0  0
 17 18  2  0  0  0  0
 17 26  1  0  0  0  0
 19 20  1  0  0  0  0
 19117  1  0  0  0  0
 19118  1  0  0  0  0
 20 21  2  0  0  0  0
 20 22  1  0  0  0  0
 21 23  1  0  0  0  0
 21119  1  0  0  0  0
 22 24  2  0  0  0  0
 22120  1  0  0  0  0
 23 25  2  0  0  0  0
 23121  1  0  0  0  0
 24 25  1  0  0  0  0
 24122  1  0  0  0  0
 25123  1  0  0  0  0
 26 27  1  0  0  0  0
 26124  1  0  0  0  0
 27 28  1  0  0  0  0
 27 30  1  0  0  0  0
 27125  1  6  0  0  0
 28 29  2  0  0  0  0
 28 35  1  0  0  0  0
 30 31  1  0  0  0  0
 30126  1  0  0  0  0
 30127  1  0  0  0  0
 31 32  1  0  0  0  0
 31128  1  0  0  0  0
 31129  1  0  0  0  0
 32 33  1  0  0  0  0
 32 34  2  0  0  0  0
 35 36  1  0  0  0  0
 35130  1  0  0  0  0
 36 37  1  0  0  0  0
 36131  1  0  0  0  0
 36132  1  0  0  0  0
 37 38  2  0  0  0  0
 37 39  1  0  0  0  0
 39 40  1  0  0  0  0
 39133  1  0  0  0  0
 40 41  1  0  0  0  0
 40 52  1  0  0  0  0
 40134  1  1  0  0  0
 41 42  1  0  0  0  0
 41135  1  0  0  0  0
 41136  1  0  0  0  0
 42 43  2  0  0  0  0
 42 45  1  0  0  0  0
 43 44  1  0  0  0  0
 43137  1  0  0  0  0
 44 47  2  0  0  0  0
 44138  1  0  0  0  0
 45 46  2  0  0  0  0
 45139  1  0  0  0  0
 46 47  1  0  0  0  0
 46140  1  0  0  0  0
 47 48  1  0  0  0  0
 48 49  1  0  0  0  0
 48141  1  0  0  0  0
 48142  1  0  0  0  0
 49 50  1  0  0  0  0
 49 51  2  0  0  0  0
 52 53  2  0  0  0  0
 52 54  1  0  0  0  0
 54 55  1  0  0  0  0
 54143  1  0  0  0  0
 55 56  1  0  0  0  0
 55 58  1  0  0  0  0
 55144  1  1  0  0  0
 56 57  2  0  0  0  0
 56 62  1  0  0  0  0
 58 59  1  0  0  0  0
 58145  1  0  0  0  0
 58146  1  0  0  0  0
 59 60  1  0  0  0  0
 59 61  2  0  0  0  0
 62 63  1  0  0  0  0
 62147  1  0  0  0  0
 63 64  1  0  0  0  0
 63 66  1  0  0  0  0
 63148  1  6  0  0  0
 64 65  2  0  0  0  0
 64 70  1  0  0  0  0
 66 67  1  0  0  0  0
 66149  1  0  0  0  0
 66150  1  0  0  0  0
 67 68  2  0  0  0  0
 67 69  1  0  0  0  0
 69151  1  0  0  0  0
 69152  1  0  0  0  0
 70 71  1  0  0  0  0
 70153  1  0  0  0  0
 71 72  1  0  0  0  0
 71 74  1  0  0  0  0
 71154  1  1  0  0  0
 72 73  2  0  0  0  0
 72 77  1  0  0  0  0
 74 75  1  0  0  0  0
 74 76  1  0  0  0  0
 74155  1  6  0  0  0
 75156  1  0  0  0  0
 76157  1  0  0  0  0
 76158  1  0  0  0  0
 76159  1  0  0  0  0
 77 78  1  0  0  0  0
 77160  1  0  0  0  0
 78 79  1  0  0  0  0
 78 81  1  0  0  0  0
 78161  1  6  0  0  0
 79 80  2  0  0  0  0
 79 88  1  0  0  0  0
 81 82  1  0  0  0  0
 81162  1  0  0  0  0
 81163  1  0  0  0  0
 82 83  2  0  0  0  0
 82 84  1  0  0  0  0
 83 85  1  0  0  0  0
 83164  1  0  0  0  0
 84 86  2  0  0  0  0
 84165  1  0  0  0  0
 85 87  2  0  0  0  0
 85166  1  0  0  0  0
 86 87  1  0  0  0  0
 86167  1  0  0  0  0
 87168  1  0  0  0  0
 88 89  1  0  0  0  0
 88 94  1  0  0  0  0
 89 90  1  0  0  0  0
 89 92  1  0  0  0  0
 89169  1  1  0  0  0
 90 91  2  0  0  0  0
 90 96  1  0  0  0  0
 92 93  1  0  0  0  0
 92170  1  0  0  0  0
 92171  1  0  0  0  0
 93 94  1  0  0  0  0
 93172  1  0  0  0  0
 93173  1  0  0  0  0
 94174  1  0  0  0  0
 94175  1  0  0  0  0
 96 97  1  0  0  0  0
 96176  1  0  0  0  0
 97 98  1  0  0  0  0
 97101  1  0  0  0  0
 97177  1  6  0  0  0
 98 99  2  0  0  0  0
 98100  1  0  0  0  0
100178  1  0  0  0  0
100179  1  0  0  0  0
101102  1  0  0  0  0
101180  1  0  0  0  0
101181  1  0  0  0  0
102103  1  0  0  0  0
103104  1  0  0  0  0
103182  1  0  0  0  0
103183  1  0  0  0  0
104 95  2  0  0  0  0
M  CHG  3  33  -1  50  -1  60  -1
M  END
