4x6x_ligand
 OpenBabel08222323353D

 67 71  0  0  1  0  0  0  0  0999 V2000
   -6.4970    8.4760   27.1060 C   0  0  0  0  0  0  0  0  0  0  0  0
   -1.8310   11.1250   30.1020 C   0  0  0  0  0  0  0  0  0  0  0  0
   -6.5890    8.1580   28.4390 C   0  0  0  0  0  0  0  0  0  0  0  0
   -5.4010    8.0580   26.3910 C   0  0  0  0  0  0  0  0  0  0  0  0
   -2.0410   10.6030   28.8480 C   0  0  0  0  0  0  0  0  0  0  0  0
   -1.7470   10.2720   31.1780 C   0  0  0  0  0  0  0  0  0  0  0  0
   -5.5950    7.4270   29.0520 C   0  0  0  0  0  0  0  0  0  0  0  0
   -4.4140    7.3290   27.0150 C   0  0  0  0  0  0  0  0  0  0  0  0
   -2.1690    9.2430   28.6830 C   0  0  0  0  0  0  0  0  0  0  0  0
   -1.8840    8.9120   31.0030 C   0  0  0  0  0  0  0  0  0  0  0  0
   -2.5760   -0.1180   38.2940 C   0  0  0  0  0  0  0  0  0  0  0  0
   -1.0520    1.5870   38.9260 C   0  0  0  0  0  0  0  0  0  0  0  0
   -2.4970    0.2870   36.9790 C   0  0  0  0  0  0  0  0  0  0  0  0
   -0.9690    1.9920   37.6130 C   0  0  0  0  0  0  0  0  0  0  0  0
   -4.4890    7.0020   28.3520 C   0  0  0  0  0  0  0  0  0  0  0  0
   -2.1000    8.3750   29.7520 C   0  0  0  0  0  0  0  0  0  0  0  0
   -1.8550    0.5300   39.2730 C   0  0  0  0  0  0  0  0  0  0  0  0
   -1.6840    1.3500   36.6300 C   0  0  0  0  0  0  0  0  0  0  0  0
   -3.2360   -0.0100   42.6770 C   0  0  0  0  0  0  0  0  0  0  0  0
   -3.6040    4.2090   31.8230 C   0  0  0  0  0  0  0  0  0  0  0  0
   -3.5260    1.3290   34.0890 C   0  0  0  0  0  0  0  0  0  0  0  0
   -1.3180    1.4130   33.0250 C   0  0  0  0  0  0  0  0  0  0  0  0
   -3.7680    2.7700   33.7520 C   0  0  0  0  0  0  0  0  0  0  0  0
   -1.6800    2.7730   32.4670 C   0  0  0  0  0  0  0  0  0  0  0  0
   -3.3990    6.2210   28.9550 C   0  0  1  0  0  0  0  0  0  0  0  0
   -2.2240    6.9170   29.5740 C   0  0  2  0  0  0  0  0  0  0  0  0
   -3.1850    6.1750   30.4410 C   0  0  2  0  0  0  0  0  0  0  0  0
   -2.0530    1.0610   34.2990 C   0  0  1  0  0  0  0  0  0  0  0  0
   -1.9350    0.0940   40.6980 C   0  0  0  0  0  0  0  0  0  0  0  0
   -3.3650    0.2000   41.1790 C   0  0  0  0  0  0  0  0  0  0  0  0
   -3.0720    3.1520   32.5510 N   0  0  0  0  0  0  0  0  0  0  0  0
   -2.7340    4.9910   31.0900 N   0  0  0  0  0  0  0  0  0  0  0  0
   -2.7360   -1.1100   43.0450 O   0  5  0  0  0  0  0  0  0  0  0  0
   -3.6660    0.9460   43.3750 O   0  0  0  0  0  0  0  0  0  0  0  0
   -4.8040    4.4440   31.8380 O   0  0  0  0  0  0  0  0  0  0  0  0
   -1.5110    1.8680   35.3410 O   0  0  0  0  0  0  0  0  0  0  0  0
   -7.2800    9.0500   26.6238 H   0  0  0  0  0  0  0  0  0  0  0  0
   -1.7328   12.1955   30.2414 H   0  0  0  0  0  0  0  0  0  0  0  0
   -7.4492    8.4842   29.0124 H   0  0  0  0  0  0  0  0  0  0  0  0
   -5.3136    8.3015   25.3383 H   0  0  0  0  0  0  0  0  0  0  0  0
   -2.1057   11.2621   27.9898 H   0  0  0  0  0  0  0  0  0  0  0  0
   -1.5719   10.6723   32.1701 H   0  0  0  0  0  0  0  0  0  0  0  0
   -5.6857    7.1823   30.1041 H   0  0  0  0  0  0  0  0  0  0  0  0
   -3.5549    7.0034   26.4396 H   0  0  0  0  0  0  0  0  0  0  0  0
   -2.3281    8.8440   27.6877 H   0  0  0  0  0  0  0  0  0  0  0  0
   -1.8209    8.2543   31.8624 H   0  0  0  0  0  0  0  0  0  0  0  0
   -3.2117   -0.9546   38.5606 H   0  0  0  0  0  0  0  0  0  0  0  0
   -0.4811    2.1048   39.6882 H   0  0  0  0  0  0  0  0  0  0  0  0
   -3.0723   -0.2278   36.2180 H   0  0  0  0  0  0  0  0  0  0  0  0
   -0.3313    2.8284   37.3507 H   0  0  0  0  0  0  0  0  0  0  0  0
   -3.8917    0.7004   33.2638 H   0  0  0  0  0  0  0  0  0  0  0  0
   -4.0720    1.0786   35.0105 H   0  0  0  0  0  0  0  0  0  0  0  0
   -0.2379    1.3996   33.2327 H   0  0  0  0  0  0  0  0  0  0  0  0
   -1.5550    0.6525   32.2664 H   0  0  0  0  0  0  0  0  0  0  0  0
   -3.4156    3.3965   34.5846 H   0  0  0  0  0  0  0  0  0  0  0  0
   -4.8468    2.9272   33.6059 H   0  0  0  0  0  0  0  0  0  0  0  0
   -1.3930    2.7864   31.4052 H   0  0  0  0  0  0  0  0  0  0  0  0
   -1.0945    3.5262   33.0146 H   0  0  0  0  0  0  0  0  0  0  0  0
   -3.2434    5.3090   28.3600 H   0  0  0  0  0  0  0  0  0  0  0  0
   -1.2217    6.5054   29.3845 H   0  0  0  0  0  0  0  0  0  0  0  0
   -3.8730    6.7187   31.1050 H   0  0  0  0  0  0  0  0  0  0  0  0
   -1.9065   -0.0017   34.5422 H   0  0  0  0  0  0  0  0  0  0  0  0
   -1.2920    0.7387   41.3152 H   0  0  0  0  0  0  0  0  0  0  0  0
   -1.5966   -0.9493   40.7816 H   0  0  0  0  0  0  0  0  0  0  0  0
   -3.7859    1.1909   40.9532 H   0  0  0  0  0  0  0  0  0  0  0  0
   -3.9945   -0.5784   40.7231 H   0  0  0  0  0  0  0  0  0  0  0  0
   -1.7738    4.7221   31.0139 H   0  0  0  0  0  0  0  0  0  0  0  0
  1 37  1  0  0  0  0
  2 38  1  0  0  0  0
  3  1  2  0  0  0  0
  3 39  1  0  0  0  0
  4  1  1  0  0  0  0
  4 40  1  0  0  0  0
  5  2  2  0  0  0  0
  5 41  1  0  0  0  0
  6  2  1  0  0  0  0
  6 42  1  0  0  0  0
  7  3  1  0  0  0  0
  7 43  1  0  0  0  0
  8  4  2  0  0  0  0
  8 44  1  0  0  0  0
  9  5  1  0  0  0  0
  9 45  1  0  0  0  0
 10  6  2  0  0  0  0
 10 46  1  0  0  0  0
 11 13  2  0  0  0  0
 11 47  1  0  0  0  0
 12 14  1  0  0  0  0
 12 48  1  0  0  0  0
 13 18  1  0  0  0  0
 13 49  1  0  0  0  0
 14 18  2  0  0  0  0
 14 50  1  0  0  0  0
 15  7  2  0  0  0  0
 15  8  1  0  0  0  0
 16  9  2  0  0  0  0
 16 10  1  0  0  0  0
 17 11  1  0  0  0  0
 17 12  2  0  0  0  0
 18 36  1  0  0  0  0
 19 33  1  0  0  0  0
 19 34  2  0  0  0  0
 20 32  1  0  0  0  0
 20 35  2  0  0  0  0
 21 23  1  0  0  0  0
 21 51  1  0  0  0  0
 21 52  1  0  0  0  0
 22 24  1  0  0  0  0
 22 53  1  0  0  0  0
 22 54  1  0  0  0  0
 23 31  1  0  0  0  0
 23 55  1  0  0  0  0
 23 56  1  0  0  0  0
 24 31  1  0  0  0  0
 24 57  1  0  0  0  0
 24 58  1  0  0  0  0
 25 15  1  0  0  0  0
 25 59  1  6  0  0  0
 26 16  1  0  0  0  0
 26 25  1  0  0  0  0
 26 60  1  6  0  0  0
 27 25  1  0  0  0  0
 27 26  1  0  0  0  0
 27 61  1  1  0  0  0
 28 21  1  0  0  0  0
 28 22  1  0  0  0  0
 28 62  1  1  0  0  0
 29 17  1  0  0  0  0
 29 30  1  0  0  0  0
 29 63  1  0  0  0  0
 29 64  1  0  0  0  0
 30 19  1  0  0  0  0
 30 65  1  0  0  0  0
 30 66  1  0  0  0  0
 31 20  1  0  0  0  0
 32 27  1  0  0  0  0
 32 67  1  0  0  0  0
 36 28  1  0  0  0  0
M  CHG  1  33  -1
M  END
