4x7j_ligand
 OpenBabel08222323353D

 57 60  0  0  0  0  0  0  0  0999 V2000
   30.7140    6.7820   -4.6360 C   0  0  0  0  0  0  0  0  0  0  0  0
   29.8940    7.9960   -4.4540 N   0  0  0  0  0  0  0  0  0  0  0  0
   29.2710    8.2910   -3.3020 C   0  0  0  0  0  0  0  0  0  0  0  0
   29.2000    7.4010   -2.2870 N   0  0  0  0  0  0  0  0  0  0  0  0
   28.7070    9.5080   -3.1680 N   0  0  0  0  0  0  0  0  0  0  0  0
   28.0800    9.8710   -2.0550 C   0  0  0  0  0  0  0  0  0  0  0  0
   27.9880    8.9770   -0.9900 C   0  0  0  0  0  0  0  0  0  0  0  0
   27.3320    9.3290    0.1960 C   0  0  0  0  0  0  0  0  0  0  0  0
   28.5720    7.7210   -1.1360 C   0  0  0  0  0  0  0  0  0  0  0  0
   28.4990    6.8050   -0.0900 C   0  0  0  0  0  0  0  0  0  0  0  0
   27.8450    7.1520    1.0930 C   0  0  0  0  0  0  0  0  0  0  0  0
   27.2590    8.4110    1.2490 C   0  0  0  0  0  0  0  0  0  0  0  0
   26.5950    8.7130    2.4550 C   0  0  0  0  0  0  0  0  0  0  0  0
   27.2010    9.4670    3.4780 C   0  0  0  0  0  0  0  0  0  0  0  0
   28.4450    9.9330    3.3330 N   0  0  0  0  0  0  0  0  0  0  0  0
   25.2880    8.2310    2.6420 C   0  0  0  0  0  0  0  0  0  0  0  0
   24.5750    7.4110    1.5520 C   0  0  0  0  0  0  0  0  0  0  0  0
   24.5940    8.4960    3.8270 C   0  0  0  0  0  0  0  0  0  0  0  0
   25.1940    9.2460    4.8340 C   0  0  0  0  0  0  0  0  0  0  0  0
   26.5010    9.7210    4.6740 C   0  0  0  0  0  0  0  0  0  0  0  0
   27.1120   10.5610    5.8150 C   0  0  0  0  0  0  0  0  0  0  0  0
   28.0920   11.2760    5.6180 O   0  0  0  0  0  0  0  0  0  0  0  0
   26.4730   10.4580    6.9860 N   0  0  0  0  0  0  0  0  0  0  0  0
   26.6940   11.1800    8.0960 C   0  0  0  0  0  0  0  0  0  0  0  0
   27.5830   12.2610    8.1390 C   0  0  0  0  0  0  0  0  0  0  0  0
   25.9360   10.8780    9.2260 C   0  0  0  0  0  0  0  0  0  0  0  0
   26.0900   11.6180   10.3960 C   0  0  0  0  0  0  0  0  0  0  0  0
   26.9900   12.6900   10.4410 C   0  0  0  0  0  0  0  0  0  0  0  0
   27.1490   13.4130   11.5910 O   0  0  0  0  0  0  0  0  0  0  0  0
   25.9490   14.0390   12.0710 C   0  0  0  0  0  0  0  0  0  0  0  0
   27.7440   13.0080    9.3080 C   0  0  0  0  0  0  0  0  0  0  0  0
   28.7330   14.1820    9.3590 C   0  0  0  0  0  0  0  0  0  0  0  0
   28.0610   15.2940    9.6010 F   0  0  0  0  0  0  0  0  0  0  0  0
   29.3770   14.3230    8.2040 F   0  0  0  0  0  0  0  0  0  0  0  0
   29.6040   13.9870   10.3400 F   0  0  0  0  0  0  0  0  0  0  0  0
   31.1176    6.7622   -5.6591 H   0  0  0  0  0  0  0  0  0  0  0  0
   30.0912    5.8906   -4.4702 H   0  0  0  0  0  0  0  0  0  0  0  0
   31.5442    6.7887   -3.9144 H   0  0  0  0  0  0  0  0  0  0  0  0
   29.7954    8.6461   -5.2468 H   0  0  0  0  0  0  0  0  0  0  0  0
   27.6414   10.8591   -1.9753 H   0  0  0  0  0  0  0  0  0  0  0  0
   26.8821   10.3100    0.2978 H   0  0  0  0  0  0  0  0  0  0  0  0
   28.9492    5.8244   -0.1943 H   0  0  0  0  0  0  0  0  0  0  0  0
   27.7907    6.4339    1.9033 H   0  0  0  0  0  0  0  0  0  0  0  0
   28.9644    9.7522    2.4621 H   0  0  0  0  0  0  0  0  0  0  0  0
   28.8844   10.4730    4.0921 H   0  0  0  0  0  0  0  0  0  0  0  0
   23.5686    7.1352    1.9001 H   0  0  0  0  0  0  0  0  0  0  0  0
   25.1531    6.4990    1.3422 H   0  0  0  0  0  0  0  0  0  0  0  0
   24.4936    8.0127    0.6348 H   0  0  0  0  0  0  0  0  0  0  0  0
   23.5874    8.1167    3.9612 H   0  0  0  0  0  0  0  0  0  0  0  0
   24.6477    9.4630    5.7448 H   0  0  0  0  0  0  0  0  0  0  0  0
   25.7517    9.7675    7.0403 H   0  0  0  0  0  0  0  0  0  0  0  0
   28.1530   12.5211    7.2544 H   0  0  0  0  0  0  0  0  0  0  0  0
   25.2225   10.0625    9.1941 H   0  0  0  0  0  0  0  0  0  0  0  0
   25.5105   11.3629   11.2758 H   0  0  0  0  0  0  0  0  0  0  0  0
   26.1697   14.5954   12.9939 H   0  0  0  0  0  0  0  0  0  0  0  0
   25.1918   13.2688   12.2794 H   0  0  0  0  0  0  0  0  0  0  0  0
   25.5664   14.7323   11.3075 H   0  0  0  0  0  0  0  0  0  0  0  0
  1  2  1  0  0  0  0
  1 36  1  0  0  0  0
  1 37  1  0  0  0  0
  1 38  1  0  0  0  0
  2  3  1  0  0  0  0
  2 39  1  0  0  0  0
  3  4  2  0  0  0  0
  3  5  1  0  0  0  0
  4  9  1  0  0  0  0
  5  6  2  0  0  0  0
  6  7  1  0  0  0  0
  6 40  1  0  0  0  0
  7  8  2  0  0  0  0
  7  9  1  0  0  0  0
  8 12  1  0  0  0  0
  8 41  1  0  0  0  0
  9 10  2  0  0  0  0
 10 11  1  0  0  0  0
 10 42  1  0  0  0  0
 11 12  2  0  0  0  0
 11 43  1  0  0  0  0
 12 13  1  0  0  0  0
 13 14  2  0  0  0  0
 13 16  1  0  0  0  0
 14 15  1  0  0  0  0
 14 20  1  0  0  0  0
 15 44  1  0  0  0  0
 15 45  1  0  0  0  0
 16 17  1  0  0  0  0
 16 18  2  0  0  0  0
 17 46  1  0  0  0  0
 17 47  1  0  0  0  0
 17 48  1  0  0  0  0
 18 19  1  0  0  0  0
 18 49  1  0  0  0  0
 19 20  2  0  0  0  0
 19 50  1  0  0  0  0
 20 21  1  0  0  0  0
 21 22  2  0  0  0  0
 21 23  1  0  0  0  0
 23 24  1  0  0  0  0
 23 51  1  0  0  0  0
 24 25  2  0  0  0  0
 24 26  1  0  0  0  0
 25 31  1  0  0  0  0
 25 52  1  0  0  0  0
 26 27  2  0  0  0  0
 26 53  1  0  0  0  0
 27 28  1  0  0  0  0
 27 54  1  0  0  0  0
 28 29  1  0  0  0  0
 28 31  2  0  0  0  0
 29 30  1  0  0  0  0
 30 55  1  0  0  0  0
 30 56  1  0  0  0  0
 30 57  1  0  0  0  0
 31 32  1  0  0  0  0
 32 33  1  0  0  0  0
 32 34  1  0  0  0  0
 32 35  1  0  0  0  0
M  END
