4x7l_ligand
 OpenBabel08222323353D

 67 72  0  0  0  0  0  0  0  0999 V2000
   31.0340    6.9460   -4.9020 C   0  0  0  0  0  0  0  0  0  0  0  0
   30.2970    8.1850   -4.5870 N   0  0  0  0  0  0  0  0  0  0  0  0
   29.6760    8.3420   -3.4080 C   0  0  0  0  0  0  0  0  0  0  0  0
   29.0760    9.4730   -3.0300 N   0  0  0  0  0  0  0  0  0  0  0  0
   29.5190    7.2020   -2.1610 S   0  0  0  0  0  0  0  0  0  0  0  0
   28.6310    8.2180   -1.1300 C   0  0  0  0  0  0  0  0  0  0  0  0
   28.1030    8.0360    0.1560 C   0  0  0  0  0  0  0  0  0  0  0  0
   28.5120    9.4510   -1.8040 C   0  0  0  0  0  0  0  0  0  0  0  0
   27.8420   10.4910   -1.1710 C   0  0  0  0  0  0  0  0  0  0  0  0
   27.3100   10.3110    0.0980 C   0  0  0  0  0  0  0  0  0  0  0  0
   27.4390    9.0980    0.7800 C   0  0  0  0  0  0  0  0  0  0  0  0
   26.8180    9.0640    2.0440 C   0  0  0  0  0  0  0  0  0  0  0  0
   27.4520    9.5790    3.1840 C   0  0  0  0  0  0  0  0  0  0  0  0
   28.7110   10.0490    3.0980 N   0  0  0  0  0  0  0  0  0  0  0  0
   25.4940    8.5900    2.1510 C   0  0  0  0  0  0  0  0  0  0  0  0
   24.7230    8.0390    0.9330 C   0  0  0  0  0  0  0  0  0  0  0  0
   24.8290    8.5990    3.3820 C   0  0  0  0  0  0  0  0  0  0  0  0
   25.4660    9.1060    4.5120 C   0  0  0  0  0  0  0  0  0  0  0  0
   26.7830    9.5830    4.4210 C   0  0  0  0  0  0  0  0  0  0  0  0
   27.4910   10.1600    5.6670 C   0  0  0  0  0  0  0  0  0  0  0  0
   28.4320   10.9470    5.5000 O   0  0  0  0  0  0  0  0  0  0  0  0
   27.0280    9.8800    7.1050 C   0  0  0  0  0  0  0  0  0  0  0  0
   26.3940    8.7510    7.6320 C   0  0  0  0  0  0  0  0  0  0  0  0
   26.0720    7.7200    7.0340 O   0  0  0  0  0  0  0  0  0  0  0  0
   26.1920    8.9760    8.9310 N   0  0  0  0  0  0  0  0  0  0  0  0
   25.6430    8.0690    9.7660 C   0  0  0  0  0  0  0  0  0  0  0  0
   26.5110    7.3830   10.6300 C   0  0  0  0  0  0  0  0  0  0  0  0
   26.0360    6.4130   11.5240 C   0  0  0  0  0  0  0  0  0  0  0  0
   24.6680    6.1160   11.5330 C   0  0  0  0  0  0  0  0  0  0  0  0
   23.8000    6.7910   10.6680 C   0  0  0  0  0  0  0  0  0  0  0  0
   24.2840    7.7590    9.7780 C   0  0  0  0  0  0  0  0  0  0  0  0
   26.6560   10.0960    9.2450 N   0  0  0  0  0  0  0  0  0  0  0  0
   26.6030   10.7040   10.5940 C   0  0  0  0  0  0  0  0  0  0  0  0
   27.1780   10.7460    8.1900 C   0  0  0  0  0  0  0  0  0  0  0  0
   27.7780   12.0230    8.1990 C   0  0  0  0  0  0  0  0  0  0  0  0
   28.9010   12.2110    9.0260 C   0  0  0  0  0  0  0  0  0  0  0  0
   29.5450   13.4510    9.1110 C   0  0  0  0  0  0  0  0  0  0  0  0
   29.0670   14.5220    8.3570 C   0  0  0  0  0  0  0  0  0  0  0  0
   27.9490   14.3430    7.5390 C   0  0  0  0  0  0  0  0  0  0  0  0
   27.3010   13.1010    7.4580 C   0  0  0  0  0  0  0  0  0  0  0  0
   31.4650    7.0223   -5.9112 H   0  0  0  0  0  0  0  0  0  0  0  0
   30.3453    6.0893   -4.8613 H   0  0  0  0  0  0  0  0  0  0  0  0
   31.8411    6.8029   -4.1685 H   0  0  0  0  0  0  0  0  0  0  0  0
   30.2586    8.9423   -5.2841 H   0  0  0  0  0  0  0  0  0  0  0  0
   28.2080    7.0828    0.6615 H   0  0  0  0  0  0  0  0  0  0  0  0
   27.7345   11.4470   -1.6706 H   0  0  0  0  0  0  0  0  0  0  0  0
   26.7818   11.1307    0.5715 H   0  0  0  0  0  0  0  0  0  0  0  0
   29.2010   10.0461    2.1920 H   0  0  0  0  0  0  0  0  0  0  0  0
   29.1839   10.4114    3.9382 H   0  0  0  0  0  0  0  0  0  0  0  0
   23.7155    7.7282    1.2468 H   0  0  0  0  0  0  0  0  0  0  0  0
   25.2613    7.1736    0.5191 H   0  0  0  0  0  0  0  0  0  0  0  0
   24.6425    8.8224    0.1650 H   0  0  0  0  0  0  0  0  0  0  0  0
   23.8192    8.2118    3.4561 H   0  0  0  0  0  0  0  0  0  0  0  0
   24.9446    9.1322    5.4620 H   0  0  0  0  0  0  0  0  0  0  0  0
   27.5711    7.6080   10.6055 H   0  0  0  0  0  0  0  0  0  0  0  0
   26.7159    5.9022   12.1962 H   0  0  0  0  0  0  0  0  0  0  0  0
   24.2813    5.3630   12.2102 H   0  0  0  0  0  0  0  0  0  0  0  0
   22.7405    6.5624   10.6865 H   0  0  0  0  0  0  0  0  0  0  0  0
   23.6044    8.2647    9.1016 H   0  0  0  0  0  0  0  0  0  0  0  0
   27.0892   11.6905   10.5709 H   0  0  0  0  0  0  0  0  0  0  0  0
   27.1268   10.0538   11.3101 H   0  0  0  0  0  0  0  0  0  0  0  0
   25.5537   10.8196   10.9032 H   0  0  0  0  0  0  0  0  0  0  0  0
   29.2753   11.3778    9.6097 H   0  0  0  0  0  0  0  0  0  0  0  0
   30.4066   13.5773    9.7565 H   0  0  0  0  0  0  0  0  0  0  0  0
   29.5594   15.4865    8.4053 H   0  0  0  0  0  0  0  0  0  0  0  0
   27.5756   15.1777    6.9569 H   0  0  0  0  0  0  0  0  0  0  0  0
   26.4322   12.9812    6.8209 H   0  0  0  0  0  0  0  0  0  0  0  0
  1  2  1  0  0  0  0
  1 41  1  0  0  0  0
  1 42  1  0  0  0  0
  1 43  1  0  0  0  0
  2  3  1  0  0  0  0
  2 44  1  0  0  0  0
  3  4  2  0  0  0  0
  3  5  1  0  0  0  0
  4  8  1  0  0  0  0
  5  6  1  0  0  0  0
  6  7  2  0  0  0  0
  6  8  1  0  0  0  0
  7 11  1  0  0  0  0
  7 45  1  0  0  0  0
  8  9  2  0  0  0  0
  9 10  1  0  0  0  0
  9 46  1  0  0  0  0
 10 11  2  0  0  0  0
 10 47  1  0  0  0  0
 11 12  1  0  0  0  0
 12 13  2  0  0  0  0
 12 15  1  0  0  0  0
 13 14  1  0  0  0  0
 13 19  1  0  0  0  0
 14 48  1  0  0  0  0
 14 49  1  0  0  0  0
 15 16  1  0  0  0  0
 15 17  2  0  0  0  0
 16 50  1  0  0  0  0
 16 51  1  0  0  0  0
 16 52  1  0  0  0  0
 17 18  1  0  0  0  0
 17 53  1  0  0  0  0
 18 19  2  0  0  0  0
 18 54  1  0  0  0  0
 19 20  1  0  0  0  0
 20 21  2  0  0  0  0
 20 22  1  0  0  0  0
 22 23  1  0  0  0  0
 22 34  2  0  0  0  0
 23 24  2  0  0  0  0
 23 25  1  0  0  0  0
 25 26  1  0  0  0  0
 25 32  1  0  0  0  0
 26 27  2  0  0  0  0
 26 31  1  0  0  0  0
 27 28  1  0  0  0  0
 27 55  1  0  0  0  0
 28 29  2  0  0  0  0
 28 56  1  0  0  0  0
 29 30  1  0  0  0  0
 29 57  1  0  0  0  0
 30 31  2  0  0  0  0
 30 58  1  0  0  0  0
 31 59  1  0  0  0  0
 32 33  1  0  0  0  0
 32 34  1  0  0  0  0
 33 60  1  0  0  0  0
 33 61  1  0  0  0  0
 33 62  1  0  0  0  0
 34 35  1  0  0  0  0
 35 36  2  0  0  0  0
 35 40  1  0  0  0  0
 36 37  1  0  0  0  0
 36 63  1  0  0  0  0
 37 38  2  0  0  0  0
 37 64  1  0  0  0  0
 38 39  1  0  0  0  0
 38 65  1  0  0  0  0
 39 40  2  0  0  0  0
 39 66  1  0  0  0  0
 40 67  1  0  0  0  0
M  END
