4x7o_ligand
 OpenBabel08222323353D

 54 58  0  0  0  0  0  0  0  0999 V2000
  -41.0510   52.0520   -3.2930 F   0  0  0  0  0  0  0  0  0  0  0  0
  -39.9940   52.1270   -4.0830 C   0  0  0  0  0  0  0  0  0  0  0  0
  -39.0210   52.6440   -3.3430 F   0  0  0  0  0  0  0  0  0  0  0  0
  -40.3100   52.9060   -5.1120 F   0  0  0  0  0  0  0  0  0  0  0  0
  -39.5720   50.7350   -4.5980 C   0  0  0  0  0  0  0  0  0  0  0  0
  -40.5550   49.8440   -5.0280 C   0  0  0  0  0  0  0  0  0  0  0  0
  -38.2230   50.3460   -4.6350 C   0  0  0  0  0  0  0  0  0  0  0  0
  -37.8680   49.0720   -5.0950 C   0  0  0  0  0  0  0  0  0  0  0  0
  -36.5850   48.6570   -5.1330 F   0  0  0  0  0  0  0  0  0  0  0  0
  -38.8530   48.1880   -5.5150 C   0  0  0  0  0  0  0  0  0  0  0  0
  -40.1900   48.5810   -5.4930 C   0  0  0  0  0  0  0  0  0  0  0  0
  -41.2660   47.6140   -5.9590 C   0  0  0  0  0  0  0  0  0  0  0  0
  -41.1550   47.2510   -7.4520 C   0  0  0  0  0  0  0  0  0  0  0  0
  -40.4200   46.3190   -7.7940 O   0  0  0  0  0  0  0  0  0  0  0  0
  -41.8550   47.9670   -8.3490 N   0  0  0  0  0  0  0  0  0  0  0  0
  -42.7810   49.0130   -7.8900 C   0  0  0  0  0  0  0  0  0  0  0  0
  -43.4850   49.4850   -9.1500 C   0  0  0  0  0  0  0  0  0  0  0  0
  -43.0170   48.4930  -10.2050 C   0  0  0  0  0  0  0  0  0  0  0  0
  -43.4250   48.3480  -11.5370 C   0  0  0  0  0  0  0  0  0  0  0  0
  -42.0220   47.6680   -9.6470 C   0  0  0  0  0  0  0  0  0  0  0  0
  -41.4670   46.6770  -10.4540 C   0  0  0  0  0  0  0  0  0  0  0  0
  -41.8800   46.5320  -11.7870 C   0  0  0  0  0  0  0  0  0  0  0  0
  -42.8360   47.3820  -12.3540 C   0  0  0  0  0  0  0  0  0  0  0  0
  -43.2920   47.1680  -13.6620 C   0  0  0  0  0  0  0  0  0  0  0  0
  -42.6140   47.0580  -14.8830 C   0  0  0  0  0  0  0  0  0  0  0  0
  -44.5830   46.9060  -13.9150 C   0  0  0  0  0  0  0  0  0  0  0  0
  -44.7460   46.6820  -15.2150 N   0  0  0  0  0  0  0  0  0  0  0  0
  -46.0390   46.3850  -15.8740 C   0  0  0  0  0  0  0  0  0  0  0  0
  -43.5870   46.7650  -15.8460 C   0  0  0  0  0  0  0  0  0  0  0  0
  -43.2720   46.6160  -17.1450 N   0  0  0  0  0  0  0  0  0  0  0  0
  -42.0010   46.7440  -17.5390 C   0  0  0  0  0  0  0  0  0  0  0  0
  -41.6850   46.5640  -19.0240 C   0  0  0  0  0  0  0  0  0  0  0  0
  -41.0300   47.0290  -16.6370 N   0  0  0  0  0  0  0  0  0  0  0  0
  -41.3040   47.1930  -15.3220 C   0  0  0  0  0  0  0  0  0  0  0  0
  -40.3330   47.4730  -14.4600 N   0  0  0  0  0  0  0  0  0  0  0  0
  -41.5996   50.1324   -5.0008 H   0  0  0  0  0  0  0  0  0  0  0  0
  -37.4534   51.0349   -4.3061 H   0  0  0  0  0  0  0  0  0  0  0  0
  -38.5831   47.1960   -5.8587 H   0  0  0  0  0  0  0  0  0  0  0  0
  -42.2492   48.0752   -5.7842 H   0  0  0  0  0  0  0  0  0  0  0  0
  -41.1843   46.6898   -5.3682 H   0  0  0  0  0  0  0  0  0  0  0  0
  -42.9291   49.3701   -6.8719 H   0  0  0  0  0  0  0  0  0  0  0  0
  -44.1617   50.3298   -9.2698 H   0  0  0  0  0  0  0  0  0  0  0  0
  -44.2025   48.9896  -11.9355 H   0  0  0  0  0  0  0  0  0  0  0  0
  -40.7112   46.0137  -10.0493 H   0  0  0  0  0  0  0  0  0  0  0  0
  -41.4483   45.7428  -12.3919 H   0  0  0  0  0  0  0  0  0  0  0  0
  -45.3763   46.8807  -13.1693 H   0  0  0  0  0  0  0  0  0  0  0  0
  -46.8406   46.3751  -15.1208 H   0  0  0  0  0  0  0  0  0  0  0  0
  -45.9837   45.4015  -16.3635 H   0  0  0  0  0  0  0  0  0  0  0  0
  -46.2529   47.1579  -16.6269 H   0  0  0  0  0  0  0  0  0  0  0  0
  -42.6123   46.3399  -19.5716 H   0  0  0  0  0  0  0  0  0  0  0  0
  -40.9751   45.7332  -19.1498 H   0  0  0  0  0  0  0  0  0  0  0  0
  -41.2404   47.4893  -19.4191 H   0  0  0  0  0  0  0  0  0  0  0  0
  -39.3628   47.5720  -14.7915 H   0  0  0  0  0  0  0  0  0  0  0  0
  -40.5502   47.5911  -13.4601 H   0  0  0  0  0  0  0  0  0  0  0  0
  1  2  1  0  0  0  0
  2  3  1  0  0  0  0
  2  4  1  0  0  0  0
  2  5  1  0  0  0  0
  5  6  2  0  0  0  0
  5  7  1  0  0  0  0
  6 11  1  0  0  0  0
  6 36  1  0  0  0  0
  7  8  2  0  0  0  0
  7 37  1  0  0  0  0
  8  9  1  0  0  0  0
  8 10  1  0  0  0  0
 10 11  2  0  0  0  0
 10 38  1  0  0  0  0
 11 12  1  0  0  0  0
 12 13  1  0  0  0  0
 12 39  1  0  0  0  0
 12 40  1  0  0  0  0
 13 14  2  0  0  0  0
 13 15  1  0  0  0  0
 15 16  1  0  0  0  0
 15 20  1  0  0  0  0
 16 17  2  0  0  0  0
 16 41  1  0  0  0  0
 17 18  1  0  0  0  0
 17 42  1  0  0  0  0
 18 19  2  0  0  0  0
 18 20  1  0  0  0  0
 19 23  1  0  0  0  0
 19 43  1  0  0  0  0
 20 21  2  0  0  0  0
 21 22  1  0  0  0  0
 21 44  1  0  0  0  0
 22 23  2  0  0  0  0
 22 45  1  0  0  0  0
 23 24  1  0  0  0  0
 24 25  1  0  0  0  0
 24 26  2  0  0  0  0
 25 29  2  0  0  0  0
 25 34  1  0  0  0  0
 26 27  1  0  0  0  0
 26 46  1  0  0  0  0
 27 28  1  0  0  0  0
 27 29  1  0  0  0  0
 28 47  1  0  0  0  0
 28 48  1  0  0  0  0
 28 49  1  0  0  0  0
 29 30  1  0  0  0  0
 30 31  2  0  0  0  0
 31 32  1  0  0  0  0
 31 33  1  0  0  0  0
 32 50  1  0  0  0  0
 32 51  1  0  0  0  0
 32 52  1  0  0  0  0
 33 34  2  0  0  0  0
 34 35  1  0  0  0  0
 35 53  1  0  0  0  0
 35 54  1  0  0  0  0
M  END
