4x8g_ligand
 OpenBabel08222323353D

 61 65  0  0  1  0  0  0  0  0999 V2000
   31.8690   45.2580   32.8880 C   0  0  0  0  0  0  0  0  0  0  0  0
   30.6480   44.6680   32.6810 C   0  0  0  0  0  0  0  0  0  0  0  0
   28.9830   44.0640   30.7870 C   0  0  0  0  0  0  0  0  0  0  0  0
   27.1370   42.5140   25.4140 C   0  0  0  0  0  0  0  0  0  0  0  0
   24.9560   43.5890   25.3320 C   0  0  0  0  0  0  0  0  0  0  0  0
   32.5460   45.7350   31.7930 C   0  0  0  0  0  0  0  0  0  0  0  0
   30.1540   44.5780   31.3980 C   0  0  0  0  0  0  0  0  0  0  0  0
   25.9140   42.7450   24.8270 C   0  0  0  0  0  0  0  0  0  0  0  0
   27.3850   43.1920   26.5910 C   0  0  0  0  0  0  0  0  0  0  0  0
   26.4330   44.0440   27.1100 C   0  0  0  0  0  0  0  0  0  0  0  0
   25.2220   44.2530   26.5020 C   0  0  0  0  0  0  0  0  0  0  0  0
   29.0990   44.2920   29.4340 C   0  0  0  0  0  0  0  0  0  0  0  0
   30.9450   45.1020   30.3990 C   0  0  0  0  0  0  0  0  0  0  0  0
   28.2230   43.9870   28.3710 C   0  0  0  0  0  0  0  0  0  0  0  0
   25.6180   42.0490   23.5830 C   0  0  0  0  0  0  0  0  0  0  0  0
   24.3420   44.9150   21.8780 C   0  0  0  0  0  0  0  0  0  0  0  0
   24.1400   44.3650   20.4890 C   0  0  0  0  0  0  0  0  0  0  0  0
   25.5220   44.2320   22.5200 C   0  0  0  0  0  0  0  0  0  0  0  0
   25.0460   42.1900   21.2150 C   0  0  0  0  0  0  0  0  0  0  0  0
   23.8730   42.8830   20.5670 C   0  0  2  0  0  0  0  0  0  0  0  0
   32.1130   44.6610   27.6630 C   0  0  0  0  0  0  0  0  0  0  0  0
   26.3780   45.4840   29.1650 C   0  0  0  0  0  0  0  0  0  0  0  0
   23.6590   46.0430   26.2840 C   0  0  0  0  0  0  0  0  0  0  0  0
   30.7870   45.3300   27.9220 C   0  0  0  0  0  0  0  0  0  0  0  0
   32.1360   45.6870   30.5240 N   0  0  0  0  0  0  0  0  0  0  0  0
   28.5020   43.1650   27.3860 N   0  0  0  0  0  0  0  0  0  0  0  0
   26.9850   44.5430   28.2510 N   0  0  0  0  0  0  0  0  0  0  0  0
   30.2910   44.9200   29.2160 N   0  0  0  0  0  0  0  0  0  0  0  0
   25.3490   42.8080   22.4750 N   0  0  0  0  0  0  0  0  0  0  0  0
   23.8140   42.3950   19.1700 N   0  3  0  0  0  0  0  0  0  0  0  0
   25.6240   40.8270   23.5560 O   0  0  0  0  0  0  0  0  0  0  0  0
   24.3540   45.1260   27.1130 O   0  0  0  0  0  0  0  0  0  0  0  0
   32.2862   45.3449   33.8847 H   0  0  0  0  0  0  0  0  0  0  0  0
   30.0787   44.2773   33.5167 H   0  0  0  0  0  0  0  0  0  0  0  0
   28.1486   43.5799   31.2924 H   0  0  0  0  0  0  0  0  0  0  0  0
   27.8639   41.8386   24.9775 H   0  0  0  0  0  0  0  0  0  0  0  0
   24.0117   43.7272   24.8180 H   0  0  0  0  0  0  0  0  0  0  0  0
   33.5093   46.1965   31.9776 H   0  0  0  0  0  0  0  0  0  0  0  0
   23.4398   44.7319   22.4801 H   0  0  0  0  0  0  0  0  0  0  0  0
   24.5310   45.9971   21.8204 H   0  0  0  0  0  0  0  0  0  0  0  0
   25.0448   44.5431   19.8893 H   0  0  0  0  0  0  0  0  0  0  0  0
   23.2826   44.8673   20.0172 H   0  0  0  0  0  0  0  0  0  0  0  0
   25.6046   44.5559   23.5680 H   0  0  0  0  0  0  0  0  0  0  0  0
   26.4398   44.5047   21.9784 H   0  0  0  0  0  0  0  0  0  0  0  0
   25.9222   42.2628   20.5540 H   0  0  0  0  0  0  0  0  0  0  0  0
   24.7976   41.1311   21.3795 H   0  0  0  0  0  0  0  0  0  0  0  0
   22.9400   42.6758   21.1115 H   0  0  0  0  0  0  0  0  0  0  0  0
   32.4938   44.9707   26.6786 H   0  0  0  0  0  0  0  0  0  0  0  0
   31.9820   43.5690   27.6784 H   0  0  0  0  0  0  0  0  0  0  0  0
   32.8307   44.9552   28.4429 H   0  0  0  0  0  0  0  0  0  0  0  0
   25.3747   45.7522   28.8024 H   0  0  0  0  0  0  0  0  0  0  0  0
   27.0000   46.3892   29.2260 H   0  0  0  0  0  0  0  0  0  0  0  0
   26.2973   45.0267   30.1621 H   0  0  0  0  0  0  0  0  0  0  0  0
   23.0051   46.6744   26.9035 H   0  0  0  0  0  0  0  0  0  0  0  0
   23.0499   45.4890   25.5546 H   0  0  0  0  0  0  0  0  0  0  0  0
   24.3829   46.6769   25.7510 H   0  0  0  0  0  0  0  0  0  0  0  0
   30.0684   45.0359   27.1428 H   0  0  0  0  0  0  0  0  0  0  0  0
   30.9172   46.4222   27.9074 H   0  0  0  0  0  0  0  0  0  0  0  0
   23.0410   42.8327   18.6936 H   0  0  0  0  0  0  0  0  0  0  0  0
   23.6868   41.3951   19.1684 H   0  0  0  0  0  0  0  0  0  0  0  0
   24.6739   42.6251   18.6971 H   0  0  0  0  0  0  0  0  0  0  0  0
  1 33  1  0  0  0  0
  2  1  2  0  0  0  0
  2 34  1  0  0  0  0
  3 35  1  0  0  0  0
  4  8  2  0  0  0  0
  4 36  1  0  0  0  0
  5  8  1  0  0  0  0
  5 37  1  0  0  0  0
  6  1  1  0  0  0  0
  6 38  1  0  0  0  0
  7  2  1  0  0  0  0
  7  3  1  0  0  0  0
  8 15  1  0  0  0  0
  9  4  1  0  0  0  0
 10  9  2  0  0  0  0
 10 11  1  0  0  0  0
 11  5  2  0  0  0  0
 11 32  1  0  0  0  0
 12  3  2  0  0  0  0
 12 14  1  0  0  0  0
 13  7  2  0  0  0  0
 13 25  1  0  0  0  0
 14 26  2  0  0  0  0
 14 27  1  0  0  0  0
 15 29  1  0  0  0  0
 15 31  2  0  0  0  0
 16 17  1  0  0  0  0
 16 39  1  0  0  0  0
 16 40  1  0  0  0  0
 17 41  1  0  0  0  0
 17 42  1  0  0  0  0
 18 16  1  0  0  0  0
 18 43  1  0  0  0  0
 18 44  1  0  0  0  0
 19 20  1  0  0  0  0
 19 45  1  0  0  0  0
 19 46  1  0  0  0  0
 20 17  1  0  0  0  0
 20 30  1  0  0  0  0
 20 47  1  1  0  0  0
 21 48  1  0  0  0  0
 21 49  1  0  0  0  0
 21 50  1  0  0  0  0
 22 51  1  0  0  0  0
 22 52  1  0  0  0  0
 22 53  1  0  0  0  0
 23 54  1  0  0  0  0
 23 55  1  0  0  0  0
 23 56  1  0  0  0  0
 24 21  1  0  0  0  0
 24 28  1  0  0  0  0
 24 57  1  0  0  0  0
 24 58  1  0  0  0  0
 25  6  2  0  0  0  0
 26  9  1  0  0  0  0
 27 10  1  0  0  0  0
 27 22  1  0  0  0  0
 28 12  1  0  0  0  0
 28 13  1  0  0  0  0
 29 18  1  0  0  0  0
 29 19  1  0  0  0  0
 30 59  1  0  0  0  0
 30 60  1  0  0  0  0
 30 61  1  0  0  0  0
 32 23  1  0  0  0  0
M  CHG  1  30   1
M  END
