4x8n_ligand
 OpenBabel08222323353D

162162  0  0  1  0  0  0  0  0999 V2000
  -33.5770    9.0720  -30.3520 N   0  3  0  0  0  0  0  0  0  0  0  0
  -32.6690    8.0840  -29.7800 C   0  0  2  0  0  0  0  0  0  0  0  0
  -33.0600    7.7310  -28.3460 C   0  0  0  0  0  0  0  0  0  0  0  0
  -33.5090    8.5980  -27.5910 O   0  0  0  0  0  0  0  0  0  0  0  0
  -31.2430    8.6140  -29.8130 C   0  0  0  0  0  0  0  0  0  0  0  0
  -30.1970    7.5400  -29.6720 C   0  0  0  0  0  0  0  0  0  0  0  0
  -28.8250    8.0710  -29.9510 C   0  0  0  0  0  0  0  0  0  0  0  0
  -28.5730    8.4640  -31.1090 O   0  5  0  0  0  0  0  0  0  0  0  0
  -28.0160    8.1300  -29.0040 O   0  0  0  0  0  0  0  0  0  0  0  0
  -32.8880    6.4660  -27.9710 N   0  0  0  0  0  0  0  0  0  0  0  0
  -33.2320    6.0090  -26.6190 C   0  0  2  0  0  0  0  0  0  0  0  0
  -32.0720    6.1720  -25.6430 C   0  0  0  0  0  0  0  0  0  0  0  0
  -30.9080    6.1850  -26.0480 O   0  0  0  0  0  0  0  0  0  0  0  0
  -33.6890    4.5470  -26.6320 C   0  0  0  0  0  0  0  0  0  0  0  0
  -35.0860    4.3210  -27.1920 C   0  0  0  0  0  0  0  0  0  0  0  0
  -35.3630    2.8330  -27.3550 C   0  0  0  0  0  0  0  0  0  0  0  0
  -34.3380    2.1810  -28.1680 N   0  0  0  0  0  0  0  0  0  0  0  0
  -33.5350    1.2120  -27.7370 C   0  0  0  0  0  3  0  0  0  0  0  0
  -33.6350    0.7650  -26.4950 N   0  0  0  0  0  0  0  0  0  0  0  0
  -32.6350    0.6830  -28.5540 N   0  0  0  0  0  0  0  0  0  0  0  0
  -32.3970    6.2960  -24.3520 N   0  0  0  0  0  0  0  0  0  0  0  0
  -31.3840    6.4490  -23.2930 C   0  0  2  0  0  0  0  0  0  0  0  0
  -30.4590    5.2390  -23.2500 C   0  0  0  0  0  0  0  0  0  0  0  0
  -29.2400    5.3670  -23.0530 O   0  0  0  0  0  0  0  0  0  0  0  0
  -32.0560    6.6430  -21.9240 C   0  0  0  0  0  0  0  0  0  0  0  0
  -31.1440    7.1750  -20.8050 C   0  0  0  0  0  0  0  0  0  0  0  0
  -30.3010    6.0930  -20.1310 C   0  0  0  0  0  0  0  0  0  0  0  0
  -30.6520    4.8960  -20.2300 O   0  5  0  0  0  0  0  0  0  0  0  0
  -29.2810    6.4480  -19.5010 O   0  0  0  0  0  0  0  0  0  0  0  0
  -31.0500    4.0650  -23.4570 N   0  0  0  0  0  0  0  0  0  0  0  0
  -30.3230    2.7970  -23.4140 C   0  0  1  0  0  0  0  0  0  0  0  0
  -31.2240    1.7180  -22.8070 C   0  0  0  0  0  0  0  0  0  0  0  0
  -32.2630    1.3950  -23.7220 O   0  0  0  0  0  0  0  0  0  0  0  0
  -29.8510    2.3210  -24.7940 C   0  0  0  0  0  0  0  0  0  0  0  0
  -29.5710    1.1340  -24.9780 O   0  0  0  0  0  0  0  0  0  0  0  0
  -33.7520    1.6240  -23.1100 P   0  0  0  0  0  0  0  0  0  0  0  0
  -33.9670    0.7180  -21.7990 O   0  0  0  0  0  1  0  0  0  0  0  0
  -33.9370    3.1780  -22.7240 O   0  0  0  0  0  1  0  0  0  0  0  0
  -34.8280    1.1910  -24.2180 O   0  0  0  0  0  0  0  0  0  0  0  0
  -29.7750    3.2370  -25.7580 N   0  0  0  0  0  0  0  0  0  0  0  0
  -29.4790    2.8860  -27.1490 C   0  0  2  0  0  0  0  0  0  0  0  0
  -28.1670    2.1210  -27.3410 C   0  0  0  0  0  0  0  0  0  0  0  0
  -28.0460    1.2770  -28.2350 O   0  0  0  0  0  0  0  0  0  0  0  0
  -29.4330    4.1500  -28.0130 C   0  0  0  0  0  0  0  0  0  0  0  0
  -29.2970    3.8740  -29.5030 C   0  0  0  0  0  0  0  0  0  0  0  0
  -30.6300    3.9270  -30.2330 C   0  0  0  0  0  0  0  0  0  0  0  0
  -31.6020    4.5120  -29.6990 O   0  5  0  0  0  0  0  0  0  0  0  0
  -30.7090    3.3830  -31.3470 O   0  0  0  0  0  0  0  0  0  0  0  0
  -27.1790    2.4380  -26.5140 N   0  0  0  0  0  0  0  0  0  0  0  0
  -25.8370    1.8870  -26.6740 C   0  0  2  0  0  0  0  0  0  0  0  0
  -25.6030    0.6420  -25.8150 C   0  0  0  0  0  0  0  0  0  0  0  0
  -24.5210    0.0590  -25.8550 O   0  0  0  0  0  0  0  0  0  0  0  0
  -24.7780    2.9400  -26.2920 C   0  0  0  0  0  0  0  0  0  0  0  0
  -24.7630    4.1520  -27.1880 C   0  0  0  0  0  0  0  0  0  0  0  0
  -25.6920    5.1650  -27.0230 C   0  0  0  0  0  0  0  0  0  0  0  0
  -23.8040    4.2860  -28.1840 C   0  0  0  0  0  0  0  0  0  0  0  0
  -25.6720    6.2810  -27.8420 C   0  0  0  0  0  0  0  0  0  0  0  0
  -23.7880    5.3960  -29.0070 C   0  0  0  0  0  0  0  0  0  0  0  0
  -24.7240    6.3930  -28.8320 C   0  0  0  0  0  0  0  0  0  0  0  0
  -26.5890    0.2460  -25.0170 N   0  0  0  0  0  0  0  0  0  0  0  0
  -26.2970   -0.7100  -23.9460 C   0  0  2  0  0  0  0  0  0  0  0  0
  -26.4570   -2.1650  -24.3600 C   0  0  0  0  0  0  0  0  0  0  0  0
  -27.4230   -2.5270  -25.0140 O   0  0  0  0  0  0  0  0  0  0  0  0
  -27.1560   -0.4370  -22.7190 C   0  0  0  0  0  0  0  0  0  0  0  0
  -27.0270    0.9800  -22.2280 C   0  0  0  0  0  0  0  0  0  0  0  0
  -25.9900    1.6280  -22.5000 O   0  5  0  0  0  0  0  0  0  0  0  0
  -27.9640    1.4370  -21.5590 O   0  0  0  0  0  0  0  0  0  0  0  0
  -25.4960   -2.9880  -23.9560 N   0  0  0  0  0  0  0  0  0  0  0  0
  -25.5230   -4.4280  -24.2100 C   0  0  2  0  0  0  0  0  0  0  0  0
  -26.5830   -5.1130  -23.3430 C   0  0  0  0  0  0  0  0  0  0  0  0
  -26.7100   -4.8260  -22.1590 O   0  0  0  0  0  0  0  0  0  0  0  0
  -24.1250   -5.0430  -23.9720 C   0  0  2  0  0  0  0  0  0  0  0  0
  -23.1250   -4.3930  -24.9370 C   0  0  0  0  0  0  0  0  0  0  0  0
  -24.1490   -6.5570  -24.1560 C   0  0  0  0  0  0  0  0  0  0  0  0
  -21.6740   -4.6710  -24.6340 C   0  0  0  0  0  0  0  0  0  0  0  0
  -27.3600   -6.0100  -23.9370 N   0  0  0  0  0  0  0  0  0  0  0  0
  -28.4370   -6.6520  -23.1910 C   0  0  2  0  0  0  0  0  0  0  0  0
  -27.9360   -7.7940  -22.3050 C   0  0  0  0  0  0  0  0  0  0  0  0
  -26.8680   -8.3700  -22.5460 O   0  0  0  0  0  0  0  0  0  0  0  0
  -29.5410   -7.1440  -24.1360 C   0  0  0  0  0  0  0  0  0  0  0  0
  -29.1560   -8.3470  -24.9830 C   0  0  0  0  0  0  0  0  0  0  0  0
  -30.2450   -8.7250  -25.9760 C   0  0  0  0  0  0  0  0  0  0  0  0
  -31.1800   -7.9190  -26.1660 O   0  5  0  0  0  0  0  0  0  0  0  0
  -30.1670   -9.8230  -26.5650 O   0  0  0  0  0  0  0  0  0  0  0  0
  -28.7090   -8.1050  -21.2680 N   0  0  0  0  0  0  0  0  0  0  0  0
  -28.4470   -9.2670  -20.4260 C   0  0  2  0  0  0  0  0  0  0  0  0
  -29.2730  -10.4660  -20.9020 C   0  0  0  0  0  0  0  0  0  0  0  0
  -29.5570  -10.6080  -22.0970 O   0  5  0  0  0  0  0  0  0  0  0  0
  -28.7520   -8.9490  -18.9700 C   0  0  0  0  0  0  0  0  0  0  0  0
  -29.6750  -11.3190  -20.1020 O   0  0  0  0  0  0  0  0  0  0  0  0
  -33.2927    9.2829  -31.2958 H   0  0  0  0  0  0  0  0  0  0  0  0
  -33.5509    9.9133  -29.7973 H   0  0  0  0  0  0  0  0  0  0  0  0
  -34.5148    8.7026  -30.3582 H   0  0  0  0  0  0  0  0  0  0  0  0
  -32.7205    7.1698  -30.3895 H   0  0  0  0  0  0  0  0  0  0  0  0
  -31.1191    9.3304  -28.9876 H   0  0  0  0  0  0  0  0  0  0  0  0
  -31.0855    9.1289  -30.7722 H   0  0  0  0  0  0  0  0  0  0  0  0
  -30.4182    6.7300  -30.3826 H   0  0  0  0  0  0  0  0  0  0  0  0
  -30.2257    7.1454  -28.6456 H   0  0  0  0  0  0  0  0  0  0  0  0
  -32.5149    5.8098  -28.6269 H   0  0  0  0  0  0  0  0  0  0  0  0
  -34.0678    6.6273  -26.2596 H   0  0  0  0  0  0  0  0  0  0  0  0
  -33.6702    4.1732  -25.5977 H   0  0  0  0  0  0  0  0  0  0  0  0
  -32.9780    3.9714  -27.2429 H   0  0  0  0  0  0  0  0  0  0  0  0
  -35.1666    4.8133  -28.1724 H   0  0  0  0  0  0  0  0  0  0  0  0
  -35.8262    4.7532  -26.5026 H   0  0  0  0  0  0  0  0  0  0  0  0
  -36.3408    2.7031  -27.8418 H   0  0  0  0  0  0  0  0  0  0  0  0
  -35.3829    2.3625  -26.3609 H   0  0  0  0  0  0  0  0  0  0  0  0
  -34.2299    2.4939  -29.1433 H   0  0  0  0  0  0  0  0  0  0  0  0
  -33.0110    0.0145  -26.1659 H   0  0  0  0  0  0  0  0  0  0  0  0
  -34.3368    1.1677  -25.8577 H   0  0  0  0  0  0  0  0  0  0  0  0
  -32.5526    1.0268  -29.5214 H   0  0  0  0  0  0  0  0  0  0  0  0
  -32.0181   -0.0718  -28.2214 H   0  0  0  0  0  0  0  0  0  0  0  0
  -33.3635    6.2845  -24.0956 H   0  0  0  0  0  0  0  0  0  0  0  0
  -30.7812    7.3416  -23.5163 H   0  0  0  0  0  0  0  0  0  0  0  0
  -32.4545    5.6697  -21.6017 H   0  0  0  0  0  0  0  0  0  0  0  0
  -32.8850    7.3546  -22.0518 H   0  0  0  0  0  0  0  0  0  0  0  0
  -31.7750    7.6502  -20.0395 H   0  0  0  0  0  0  0  0  0  0  0  0
  -30.4650    7.9246  -21.2376 H   0  0  0  0  0  0  0  0  0  0  0  0
  -32.0311    4.0492  -23.6498 H   0  0  0  0  0  0  0  0  0  0  0  0
  -29.4387    2.9301  -22.7734 H   0  0  0  0  0  0  0  0  0  0  0  0
  -31.6638    2.0922  -21.8708 H   0  0  0  0  0  0  0  0  0  0  0  0
  -30.6274    0.8178  -22.5978 H   0  0  0  0  0  0  0  0  0  0  0  0
  -29.9252    4.1976  -25.5240 H   0  0  0  0  0  0  0  0  0  0  0  0
  -30.2972    2.2446  -27.5084 H   0  0  0  0  0  0  0  0  0  0  0  0
  -28.5730    4.7569  -27.6934 H   0  0  0  0  0  0  0  0  0  0  0  0
  -30.3621    4.7156  -27.8490 H   0  0  0  0  0  0  0  0  0  0  0  0
  -28.8617    2.8728  -29.6373 H   0  0  0  0  0  0  0  0  0  0  0  0
  -28.6257    4.6275  -29.9408 H   0  0  0  0  0  0  0  0  0  0  0  0
  -27.3586    3.0712  -25.7612 H   0  0  0  0  0  0  0  0  0  0  0  0
  -25.7041    1.6123  -27.7308 H   0  0  0  0  0  0  0  0  0  0  0  0
  -23.7869    2.4651  -26.3371 H   0  0  0  0  0  0  0  0  0  0  0  0
  -24.9783    3.2737  -25.2632 H   0  0  0  0  0  0  0  0  0  0  0  0
  -26.4424    5.0836  -26.2450 H   0  0  0  0  0  0  0  0  0  0  0  0
  -23.0588    3.5101  -28.3173 H   0  0  0  0  0  0  0  0  0  0  0  0
  -26.4046    7.0677  -27.7027 H   0  0  0  0  0  0  0  0  0  0  0  0
  -23.0414    5.4826  -29.7882 H   0  0  0  0  0  0  0  0  0  0  0  0
  -24.7127    7.2656  -29.4750 H   0  0  0  0  0  0  0  0  0  0  0  0
  -27.5170    0.5956  -25.1457 H   0  0  0  0  0  0  0  0  0  0  0  0
  -25.2446   -0.5635  -23.6615 H   0  0  0  0  0  0  0  0  0  0  0  0
  -26.8468   -1.1189  -21.9132 H   0  0  0  0  0  0  0  0  0  0  0  0
  -28.2086   -0.6266  -22.9761 H   0  0  0  0  0  0  0  0  0  0  0  0
  -24.7191   -2.6058  -23.4557 H   0  0  0  0  0  0  0  0  0  0  0  0
  -25.7914   -4.5860  -25.2650 H   0  0  0  0  0  0  0  0  0  0  0  0
  -23.8145   -4.8247  -22.9396 H   0  0  0  0  0  0  0  0  0  0  0  0
  -23.2778   -3.3042  -24.9044 H   0  0  0  0  0  0  0  0  0  0  0  0
  -23.3389   -4.7632  -25.9505 H   0  0  0  0  0  0  0  0  0  0  0  0
  -24.8716   -7.0001  -23.4550 H   0  0  0  0  0  0  0  0  0  0  0  0
  -23.1475   -6.9664  -23.9577 H   0  0  0  0  0  0  0  0  0  0  0  0
  -24.4453   -6.7963  -25.1880 H   0  0  0  0  0  0  0  0  0  0  0  0
  -21.0407   -4.1646  -25.3773 H   0  0  0  0  0  0  0  0  0  0  0  0
  -21.4920   -5.7551  -24.6749 H   0  0  0  0  0  0  0  0  0  0  0  0
  -21.4309   -4.2960  -23.6289 H   0  0  0  0  0  0  0  0  0  0  0  0
  -27.2072   -6.2461  -24.8967 H   0  0  0  0  0  0  0  0  0  0  0  0
  -28.8770   -5.8911  -22.5296 H   0  0  0  0  0  0  0  0  0  0  0  0
  -29.8073   -6.3186  -24.8126 H   0  0  0  0  0  0  0  0  0  0  0  0
  -30.4165   -7.4174  -23.5288 H   0  0  0  0  0  0  0  0  0  0  0  0
  -28.9707   -9.2034  -24.3180 H   0  0  0  0  0  0  0  0  0  0  0  0
  -28.2372   -8.1090  -25.5390 H   0  0  0  0  0  0  0  0  0  0  0  0
  -29.4951   -7.5234  -21.0589 H   0  0  0  0  0  0  0  0  0  0  0  0
  -27.3807   -9.5242  -20.5091 H   0  0  0  0  0  0  0  0  0  0  0  0
  -28.5490   -9.8353  -18.3509 H   0  0  0  0  0  0  0  0  0  0  0  0
  -29.8105   -8.6667  -18.8703 H   0  0  0  0  0  0  0  0  0  0  0  0
  -28.1171   -8.1152  -18.6360 H   0  0  0  0  0  0  0  0  0  0  0  0
  1  2  1  0  0  0  0
  1 91  1  0  0  0  0
  1 92  1  0  0  0  0
  1 93  1  0  0  0  0
  2  3  1  0  0  0  0
  2  5  1  0  0  0  0
  2 94  1  6  0  0  0
  3  4  2  0  0  0  0
  3 10  1  0  0  0  0
  5  6  1  0  0  0  0
  5 95  1  0  0  0  0
  5 96  1  0  0  0  0
  6  7  1  0  0  0  0
  6 97  1  0  0  0  0
  6 98  1  0  0  0  0
  7  8  1  0  0  0  0
  7  9  2  0  0  0  0
 10 11  1  0  0  0  0
 10 99  1  0  0  0  0
 11 12  1  0  0  0  0
 11 14  1  0  0  0  0
 11100  1  1  0  0  0
 12 13  2  0  0  0  0
 12 21  1  0  0  0  0
 14 15  1  0  0  0  0
 14101  1  0  0  0  0
 14102  1  0  0  0  0
 15 16  1  0  0  0  0
 15103  1  0  0  0  0
 15104  1  0  0  0  0
 16 17  1  0  0  0  0
 16105  1  0  0  0  0
 16106  1  0  0  0  0
 17 18  1  0  0  0  0
 17107  1  0  0  0  0
 18 19  1  0  0  0  0
 18 20  1  0  0  0  0
 19108  1  0  0  0  0
 19109  1  0  0  0  0
 20110  1  0  0  0  0
 20111  1  0  0  0  0
 21 22  1  0  0  0  0
 21112  1  0  0  0  0
 22 23  1  0  0  0  0
 22 25  1  0  0  0  0
 22113  1  6  0  0  0
 23 24  2  0  0  0  0
 23 30  1  0  0  0  0
 25 26  1  0  0  0  0
 25114  1  0  0  0  0
 25115  1  0  0  0  0
 26 27  1  0  0  0  0
 26116  1  0  0  0  0
 26117  1  0  0  0  0
 27 28  1  0  0  0  0
 27 29  2  0  0  0  0
 30 31  1  0  0  0  0
 30118  1  0  0  0  0
 31 32  1  0  0  0  0
 31 34  1  0  0  0  0
 31119  1  1  0  0  0
 32 33  1  0  0  0  0
 32120  1  0  0  0  0
 32121  1  0  0  0  0
 33 36  1  0  0  0  0
 34 35  2  0  0  0  0
 34 40  1  0  0  0  0
 36 37  1  0  0  0  0
 36 38  1  0  0  0  0
 36 39  2  0  0  0  0
 40 41  1  0  0  0  0
 40122  1  0  0  0  0
 41 42  1  0  0  0  0
 41 44  1  0  0  0  0
 41123  1  6  0  0  0
 42 43  2  0  0  0  0
 42 49  1  0  0  0  0
 44 45  1  0  0  0  0
 44124  1  0  0  0  0
 44125  1  0  0  0  0
 45 46  1  0  0  0  0
 45126  1  0  0  0  0
 45127  1  0  0  0  0
 46 47  1  0  0  0  0
 46 48  2  0  0  0  0
 49 50  1  0  0  0  0
 49128  1  0  0  0  0
 50 51  1  0  0  0  0
 50 53  1  0  0  0  0
 50129  1  6  0  0  0
 51 52  2  0  0  0  0
 51 60  1  0  0  0  0
 53 54  1  0  0  0  0
 53130  1  0  0  0  0
 53131  1  0  0  0  0
 54 55  2  0  0  0  0
 54 56  1  0  0  0  0
 55 57  1  0  0  0  0
 55132  1  0  0  0  0
 56 58  2  0  0  0  0
 56133  1  0  0  0  0
 57 59  2  0  0  0  0
 57134  1  0  0  0  0
 58 59  1  0  0  0  0
 58135  1  0  0  0  0
 59136  1  0  0  0  0
 60 61  1  0  0  0  0
 60137  1  0  0  0  0
 61 62  1  0  0  0  0
 61 64  1  0  0  0  0
 61138  1  1  0  0  0
 62 63  2  0  0  0  0
 62 68  1  0  0  0  0
 64 65  1  0  0  0  0
 64139  1  0  0  0  0
 64140  1  0  0  0  0
 65 66  1  0  0  0  0
 65 67  2  0  0  0  0
 68 69  1  0  0  0  0
 68141  1  0  0  0  0
 69 70  1  0  0  0  0
 69 72  1  0  0  0  0
 69142  1  6  0  0  0
 70 71  2  0  0  0  0
 70 76  1  0  0  0  0
 72 73  1  0  0  0  0
 72 74  1  0  0  0  0
 72143  1  1  0  0  0
 73 75  1  0  0  0  0
 73144  1  0  0  0  0
 73145  1  0  0  0  0
 74146  1  0  0  0  0
 74147  1  0  0  0  0
 74148  1  0  0  0  0
 75149  1  0  0  0  0
 75150  1  0  0  0  0
 75151  1  0  0  0  0
 76 77  1  0  0  0  0
 76152  1  0  0  0  0
 77 78  1  0  0  0  0
 77 80  1  0  0  0  0
 77153  1  1  0  0  0
 78 79  2  0  0  0  0
 78 85  1  0  0  0  0
 80 81  1  0  0  0  0
 80154  1  0  0  0  0
 80155  1  0  0  0  0
 81 82  1  0  0  0  0
 81156  1  0  0  0  0
 81157  1  0  0  0  0
 82 83  1  0  0  0  0
 82 84  2  0  0  0  0
 85 86  1  0  0  0  0
 85158  1  0  0  0  0
 86 87  1  0  0  0  0
 86 89  1  0  0  0  0
 86159  1  6  0  0  0
 87 88  1  0  0  0  0
 87 90  2  0  0  0  0
 89160  1  0  0  0  0
 89161  1  0  0  0  0
 89162  1  0  0  0  0
M  CHG  7   1   1   8  -1  28  -1  47  -1  66  -1  83  -1  88  -1
M  END
