4x9w_ligand
 OpenBabel08222323353D

133135  0  0  1  0  0  0  0  0999 V2000
   40.2490   28.0030   15.8910 N   0  0  0  0  0  0  0  0  0  0  0  0
   39.9660   27.4410   17.2050 C   0  0  2  0  0  0  0  0  0  0  0  0
   38.9750   26.2780   17.1720 C   0  0  0  0  0  0  0  0  0  0  0  0
   38.7660   25.6170   18.1840 O   0  0  0  0  0  0  0  0  0  0  0  0
   39.5630   28.5210   18.2170 C   0  0  0  0  0  0  0  0  0  0  0  0
   40.6970   29.4120   18.7310 C   0  0  0  0  0  0  0  0  0  0  0  0
   41.8650   28.5940   19.2630 C   0  0  0  0  0  0  0  0  0  0  0  0
   41.1770   30.4180   17.6940 C   0  0  0  0  0  0  0  0  0  0  0  0
   37.5730   24.8320   15.8000 C   0  0  2  0  0  0  0  0  0  0  0  0
   37.4340   24.4930   14.3190 C   0  0  0  0  0  0  0  0  0  0  0  0
   36.2200   24.9320   16.5110 C   0  0  0  0  0  0  0  0  0  0  0  0
   34.8320   26.2320   14.8000 C   0  0  0  0  0  0  0  0  0  0  0  0
   37.8170   25.2880   13.4620 O   0  0  0  0  0  0  0  0  0  0  0  0
   38.3950   26.0140   15.9990 N   0  0  0  0  0  0  0  0  0  0  0  0
   33.7550   28.1570   13.5430 C   0  0  0  0  0  0  0  0  0  0  0  0
   34.3730   27.5240   14.7210 N   0  0  0  0  0  4  0  0  0  0  0  0
   34.6190   28.1340   15.8710 C   0  0  0  0  0  0  0  0  0  0  0  0
   35.2300   27.2740   16.6890 N   0  0  0  0  0  0  0  0  0  0  0  0
   35.3710   26.0640   16.0210 C   0  0  0  0  0  0  0  0  0  0  0  0
   35.6440   27.5560   18.0720 C   0  0  0  0  0  0  0  0  0  0  0  0
   34.5100   27.3590   19.0570 C   0  0  0  0  0  0  0  0  0  0  0  0
   34.9640   27.2960   20.5030 C   0  0  0  0  0  0  0  0  0  0  0  0
   33.8640   26.8240   21.4370 C   0  0  0  0  0  0  0  0  0  0  0  0
   34.3020   26.6410   22.8790 C   0  0  0  0  0  0  0  0  0  0  0  0
   33.1630   26.7710   23.8760 C   0  0  0  0  0  0  0  0  0  0  0  0
   32.0480   25.7440   23.7210 C   0  0  0  0  0  0  0  0  0  0  0  0
   32.2910   24.3720   24.3450 C   0  0  0  0  0  0  0  0  0  0  0  0
   32.6590   24.4110   25.8090 C   0  0  0  0  0  0  0  0  0  0  0  0
   32.1380   25.3870   26.6460 C   0  0  0  0  0  0  0  0  0  0  0  0
   32.5240   25.4610   27.9730 C   0  0  0  0  0  0  0  0  0  0  0  0
   33.4260   24.5540   28.4830 C   0  0  0  0  0  0  0  0  0  0  0  0
   33.9370   23.5690   27.6670 C   0  0  0  0  0  0  0  0  0  0  0  0
   33.5560   23.4980   26.3390 C   0  0  0  0  0  0  0  0  0  0  0  0
   41.3310   27.6450   15.1940 C   0  0  0  0  0  0  0  0  0  0  0  0
   42.1060   26.7690   15.5720 O   0  0  0  0  0  0  0  0  0  0  0  0
   41.5590   28.3900   13.9030 C   0  0  0  0  0  0  0  0  0  0  0  0
   40.3150   28.4810   13.0330 C   0  0  0  0  0  0  0  0  0  0  0  0
   40.6430   28.8310   11.5910 C   0  0  0  0  0  0  0  0  0  0  0  0
   39.4460   28.8720   10.6570 C   0  0  0  0  0  0  0  0  0  0  0  0
   38.5570   30.0980   10.8190 C   0  0  0  0  0  0  0  0  0  0  0  0
   37.2570   29.8490   11.5630 C   0  0  0  0  0  0  0  0  0  0  0  0
   36.2920   28.9060   10.8530 C   0  0  0  0  0  0  0  0  0  0  0  0
   34.8630   28.9110   11.3750 C   0  0  0  0  0  0  0  0  0  0  0  0
   34.7140   29.1270   12.8780 C   0  0  0  0  0  0  0  0  0  0  0  0
   36.8730   23.3170   14.0260 N   0  0  0  0  0  0  0  0  0  0  0  0
   36.7800   22.8280   12.6590 C   0  0  2  0  0  0  0  0  0  0  0  0
   35.6990   23.5350   11.8460 C   0  0  0  0  0  0  0  0  0  0  0  0
   34.9720   24.3770   12.3630 O   0  0  0  0  0  0  0  0  0  0  0  0
   36.5350   21.3210   12.6400 C   0  0  0  0  0  0  0  0  0  0  0  0
   35.3610   20.9840   13.3660 O   0  0  0  0  0  0  0  0  0  0  0  0
   35.6150   23.1880   10.5590 N   0  0  0  0  0  0  0  0  0  0  0  0
   34.7580   23.8830    9.6160 C   0  0  1  0  0  0  0  0  0  0  0  0
   34.9840   23.3470    8.2020 C   0  0  1  0  0  0  0  0  0  0  0  0
   34.2380   24.1200    7.1390 C   0  0  0  0  0  0  0  0  0  0  0  0
   36.4020   23.4550    7.9660 O   0  0  0  0  0  0  0  0  0  0  0  0
   37.4650   22.2470    7.7950 P   0  0  0  0  0  0  0  0  0  0  0  0
   36.8750   21.4080    6.6810 O   0  0  0  0  0  1  0  0  0  0  0  0
   38.8230   22.7950    7.4690 O   0  0  0  0  0  1  0  0  0  0  0  0
   37.4730   21.4580    9.1190 O   0  0  0  0  0  0  0  0  0  0  0  0
   33.2750   23.7140    9.9590 C   0  0  0  0  0  0  0  0  0  0  0  0
   32.8930   22.6240   10.3930 O   0  0  0  0  0  0  0  0  0  0  0  0
   32.4680   24.7490    9.7780 N   0  0  0  0  0  0  0  0  0  0  0  0
   39.6176   28.6734   15.5011 H   0  0  0  0  0  0  0  0  0  0  0  0
   40.9156   27.0192   17.5660 H   0  0  0  0  0  0  0  0  0  0  0  0
   39.1100   28.0182   19.0842 H   0  0  0  0  0  0  0  0  0  0  0  0
   38.8154   29.1700   17.7376 H   0  0  0  0  0  0  0  0  0  0  0  0
   40.2907   29.9881   19.5754 H   0  0  0  0  0  0  0  0  0  0  0  0
   42.6543   29.2715   19.6207 H   0  0  0  0  0  0  0  0  0  0  0  0
   42.2640   27.9585   18.4587 H   0  0  0  0  0  0  0  0  0  0  0  0
   41.5209   27.9609   20.0941 H   0  0  0  0  0  0  0  0  0  0  0  0
   40.3198   30.9985   17.3221 H   0  0  0  0  0  0  0  0  0  0  0  0
   41.6493   29.8840   16.8563 H   0  0  0  0  0  0  0  0  0  0  0  0
   41.9086   31.0984   18.1543 H   0  0  0  0  0  0  0  0  0  0  0  0
   38.1089   23.9925   16.2668 H   0  0  0  0  0  0  0  0  0  0  0  0
   36.4013   25.0729   17.5867 H   0  0  0  0  0  0  0  0  0  0  0  0
   35.6723   23.9915   16.3516 H   0  0  0  0  0  0  0  0  0  0  0  0
   34.7707   25.4792   14.0155 H   0  0  0  0  0  0  0  0  0  0  0  0
   38.5298   26.6467   15.2364 H   0  0  0  0  0  0  0  0  0  0  0  0
   32.8540   28.7029   13.8597 H   0  0  0  0  0  0  0  0  0  0  0  0
   33.4756   27.3760   12.8206 H   0  0  0  0  0  0  0  0  0  0  0  0
   34.3649   29.1658   16.1094 H   0  0  0  0  0  0  0  0  0  0  0  0
   35.9901   28.5983   18.1333 H   0  0  0  0  0  0  0  0  0  0  0  0
   36.4687   26.8794   18.3405 H   0  0  0  0  0  0  0  0  0  0  0  0
   33.9970   26.4172   18.8125 H   0  0  0  0  0  0  0  0  0  0  0  0
   33.8069   28.1981   18.9498 H   0  0  0  0  0  0  0  0  0  0  0  0
   35.2858   28.3002   20.8159 H   0  0  0  0  0  0  0  0  0  0  0  0
   35.8123   26.5996   20.5765 H   0  0  0  0  0  0  0  0  0  0  0  0
   33.4884   25.8588   21.0664 H   0  0  0  0  0  0  0  0  0  0  0  0
   33.0523   27.5661   21.4155 H   0  0  0  0  0  0  0  0  0  0  0  0
   35.0591   27.4038   23.1131 H   0  0  0  0  0  0  0  0  0  0  0  0
   34.7453   25.6398   22.9845 H   0  0  0  0  0  0  0  0  0  0  0  0
   32.7223   27.7723   23.7613 H   0  0  0  0  0  0  0  0  0  0  0  0
   33.5823   26.6686   24.8878 H   0  0  0  0  0  0  0  0  0  0  0  0
   31.8782   25.5956   22.6444 H   0  0  0  0  0  0  0  0  0  0  0  0
   31.1412   26.1639   24.1808 H   0  0  0  0  0  0  0  0  0  0  0  0
   33.1107   23.8846   23.7968 H   0  0  0  0  0  0  0  0  0  0  0  0
   31.3724   23.7767   24.2366 H   0  0  0  0  0  0  0  0  0  0  0  0
   31.4204   26.0998   26.2562 H   0  0  0  0  0  0  0  0  0  0  0  0
   32.1153   26.2349   28.6126 H   0  0  0  0  0  0  0  0  0  0  0  0
   33.7322   24.6149   29.5211 H   0  0  0  0  0  0  0  0  0  0  0  0
   34.6400   22.8471   28.0667 H   0  0  0  0  0  0  0  0  0  0  0  0
   33.9642   22.7187   25.7056 H   0  0  0  0  0  0  0  0  0  0  0  0
   42.3452   27.8713   13.3348 H   0  0  0  0  0  0  0  0  0  0  0  0
   41.8925   29.4104   14.1430 H   0  0  0  0  0  0  0  0  0  0  0  0
   39.6525   29.2574   13.4433 H   0  0  0  0  0  0  0  0  0  0  0  0
   39.7982   27.5102   13.0524 H   0  0  0  0  0  0  0  0  0  0  0  0
   41.3496   28.0796   11.2088 H   0  0  0  0  0  0  0  0  0  0  0  0
   41.1200   29.8221   11.5795 H   0  0  0  0  0  0  0  0  0  0  0  0
   38.8340   27.9773   10.8441 H   0  0  0  0  0  0  0  0  0  0  0  0
   39.8176   28.8521    9.6219 H   0  0  0  0  0  0  0  0  0  0  0  0
   38.3100   30.4764    9.8161 H   0  0  0  0  0  0  0  0  0  0  0  0
   39.1252   30.8622   11.3696 H   0  0  0  0  0  0  0  0  0  0  0  0
   36.7513   30.8156   11.7038 H   0  0  0  0  0  0  0  0  0  0  0  0
   37.5005   29.4161   12.5445 H   0  0  0  0  0  0  0  0  0  0  0  0
   36.6845   27.8832   10.9516 H   0  0  0  0  0  0  0  0  0  0  0  0
   36.2647   29.1874    9.7900 H   0  0  0  0  0  0  0  0  0  0  0  0
   34.4074   27.9415   11.1251 H   0  0  0  0  0  0  0  0  0  0  0  0
   34.3172   29.7160   10.8611 H   0  0  0  0  0  0  0  0  0  0  0  0
   35.7033   29.0118   13.3448 H   0  0  0  0  0  0  0  0  0  0  0  0
   34.3457   30.1497   13.0467 H   0  0  0  0  0  0  0  0  0  0  0  0
   36.5061   22.7560   14.7681 H   0  0  0  0  0  0  0  0  0  0  0  0
   37.7464   23.0238   12.1715 H   0  0  0  0  0  0  0  0  0  0  0  0
   37.3972   20.8112   13.0947 H   0  0  0  0  0  0  0  0  0  0  0  0
   36.4204   20.9888   11.5976 H   0  0  0  0  0  0  0  0  0  0  0  0
   34.6124   21.4189   12.9749 H   0  0  0  0  0  0  0  0  0  0  0  0
   36.1643   22.4189   10.2321 H   0  0  0  0  0  0  0  0  0  0  0  0
   35.0089   24.9537    9.6413 H   0  0  0  0  0  0  0  0  0  0  0  0
   34.6703   22.2937    8.1565 H   0  0  0  0  0  0  0  0  0  0  0  0
   34.4464   23.6809    6.1522 H   0  0  0  0  0  0  0  0  0  0  0  0
   34.5669   25.1696    7.1501 H   0  0  0  0  0  0  0  0  0  0  0  0
   33.1578   24.0721    7.3409 H   0  0  0  0  0  0  0  0  0  0  0  0
   31.4948   24.6679    9.9934 H   0  0  0  0  0  0  0  0  0  0  0  0
   32.8320   25.6113    9.4260 H   0  0  0  0  0  0  0  0  0  0  0  0
  1 34  1  0  0  0  0
  1 63  1  0  0  0  0
  2  1  1  0  0  0  0
  2  5  1  0  0  0  0
  2 64  1  1  0  0  0
  3  2  1  0  0  0  0
  3  4  2  0  0  0  0
  5  6  1  0  0  0  0
  5 65  1  0  0  0  0
  5 66  1  0  0  0  0
  6  7  1  0  0  0  0
  6  8  1  0  0  0  0
  6 67  1  0  0  0  0
  7 68  1  0  0  0  0
  7 69  1  0  0  0  0
  7 70  1  0  0  0  0
  8 71  1  0  0  0  0
  8 72  1  0  0  0  0
  8 73  1  0  0  0  0
  9 10  1  0  0  0  0
  9 14  1  0  0  0  0
  9 74  1  1  0  0  0
 10 13  2  0  0  0  0
 10 45  1  0  0  0  0
 11  9  1  0  0  0  0
 11 75  1  0  0  0  0
 11 76  1  0  0  0  0
 12 16  1  0  0  0  0
 12 19  2  0  0  0  0
 12 77  1  0  0  0  0
 14  3  1  0  0  0  0
 14 78  1  0  0  0  0
 15 44  1  0  0  0  0
 15 79  1  0  0  0  0
 15 80  1  0  0  0  0
 16 15  1  0  0  0  0
 16 17  2  0  0  0  0
 17 18  1  0  0  0  0
 17 81  1  0  0  0  0
 18 19  1  0  0  0  0
 18 20  1  0  0  0  0
 19 11  1  0  0  0  0
 20 21  1  0  0  0  0
 20 82  1  0  0  0  0
 20 83  1  0  0  0  0
 21 22  1  0  0  0  0
 21 84  1  0  0  0  0
 21 85  1  0  0  0  0
 22 23  1  0  0  0  0
 22 86  1  0  0  0  0
 22 87  1  0  0  0  0
 23 24  1  0  0  0  0
 23 88  1  0  0  0  0
 23 89  1  0  0  0  0
 24 25  1  0  0  0  0
 24 90  1  0  0  0  0
 24 91  1  0  0  0  0
 25 26  1  0  0  0  0
 25 92  1  0  0  0  0
 25 93  1  0  0  0  0
 26 27  1  0  0  0  0
 26 94  1  0  0  0  0
 26 95  1  0  0  0  0
 27 28  1  0  0  0  0
 27 96  1  0  0  0  0
 27 97  1  0  0  0  0
 28 29  2  0  0  0  0
 28 33  1  0  0  0  0
 29 30  1  0  0  0  0
 29 98  1  0  0  0  0
 30 31  2  0  0  0  0
 30 99  1  0  0  0  0
 31 32  1  0  0  0  0
 31100  1  0  0  0  0
 32 33  2  0  0  0  0
 32101  1  0  0  0  0
 33102  1  0  0  0  0
 34 35  2  0  0  0  0
 34 36  1  0  0  0  0
 36 37  1  0  0  0  0
 36103  1  0  0  0  0
 36104  1  0  0  0  0
 37 38  1  0  0  0  0
 37105  1  0  0  0  0
 37106  1  0  0  0  0
 38 39  1  0  0  0  0
 38107  1  0  0  0  0
 38108  1  0  0  0  0
 39 40  1  0  0  0  0
 39109  1  0  0  0  0
 39110  1  0  0  0  0
 40 41  1  0  0  0  0
 40111  1  0  0  0  0
 40112  1  0  0  0  0
 41 42  1  0  0  0  0
 41113  1  0  0  0  0
 41114  1  0  0  0  0
 42 43  1  0  0  0  0
 42115  1  0  0  0  0
 42116  1  0  0  0  0
 43 44  1  0  0  0  0
 43117  1  0  0  0  0
 43118  1  0  0  0  0
 44119  1  0  0  0  0
 44120  1  0  0  0  0
 45 46  1  0  0  0  0
 45121  1  0  0  0  0
 46 47  1  0  0  0  0
 46 49  1  0  0  0  0
 46122  1  6  0  0  0
 47 48  2  0  0  0  0
 47 51  1  0  0  0  0
 49 50  1  0  0  0  0
 49123  1  0  0  0  0
 49124  1  0  0  0  0
 50125  1  0  0  0  0
 51 52  1  0  0  0  0
 51126  1  0  0  0  0
 52 53  1  0  0  0  0
 52 60  1  0  0  0  0
 52127  1  1  0  0  0
 53 54  1  0  0  0  0
 53 55  1  0  0  0  0
 53128  1  6  0  0  0
 54129  1  0  0  0  0
 54130  1  0  0  0  0
 54131  1  0  0  0  0
 55 56  1  0  0  0  0
 56 57  1  0  0  0  0
 56 58  1  0  0  0  0
 56 59  2  0  0  0  0
 60 61  2  0  0  0  0
 60 62  1  0  0  0  0
 62132  1  0  0  0  0
 62133  1  0  0  0  0
M  END
