4xc2_ligand
 OpenBabel08222323353D

174177  0  0  1  0  0  0  0  0999 V2000
   17.6880    5.9830   10.4210 N   0  3  0  0  0  0  0  0  0  0  0  0
   18.9150    6.8180   10.2410 C   0  0  2  0  0  0  0  0  0  0  0  0
   19.9160    6.3580    9.1590 C   0  0  0  0  0  0  0  0  0  0  0  0
   20.8520    7.0950    8.8570 O   0  0  0  0  0  0  0  0  0  0  0  0
   19.6450    7.0150   11.5800 C   0  0  0  0  0  0  0  0  0  0  0  0
   20.3900    5.8730   11.9580 O   0  0  0  0  0  0  0  0  0  0  0  0
   19.7180    5.1970    8.5370 N   0  0  0  0  0  0  0  0  0  0  0  0
   20.4950    4.8820    7.3340 C   0  0  2  0  0  0  0  0  0  0  0  0
   20.0270    5.7800    6.1820 C   0  0  0  0  0  0  0  0  0  0  0  0
   18.8310    5.8230    5.8630 O   0  0  0  0  0  0  0  0  0  0  0  0
   20.3630    3.4000    6.9550 C   0  0  0  0  0  0  0  0  0  0  0  0
   21.1200    3.0380    5.6690 C   0  0  0  0  0  0  0  0  0  0  0  0
   22.1240    3.7050    5.3450 O   0  5  0  0  0  0  0  0  0  0  0  0
   20.7200    2.0660    4.9820 O   0  0  0  0  0  0  0  0  0  0  0  0
   20.9650    6.5190    5.5920 N   0  0  0  0  0  0  0  0  0  0  0  0
   20.6880    7.3620    4.4340 C   0  0  2  0  0  0  0  0  0  0  0  0
   21.5110    7.0030    3.1770 C   0  0  0  0  0  0  0  0  0  0  0  0
   21.6920    7.8390    2.3040 O   0  0  0  0  0  0  0  0  0  0  0  0
   20.9530    8.8140    4.8040 C   0  0  0  0  0  0  0  0  0  0  0  0
   22.4190    9.1540    4.7620 C   0  0  0  0  0  0  0  0  0  0  0  0
   23.2200    8.2150    4.6320 O   0  5  0  0  0  0  0  0  0  0  0  0
   22.7590   10.3500    4.7910 O   0  0  0  0  0  0  0  0  0  0  0  0
   21.9580    5.7520    3.0590 N   0  0  0  0  0  0  0  0  0  0  0  0
   22.7730    5.3270    1.9070 C   0  0  2  0  0  0  0  0  0  0  0  0
   22.0090    5.2670    0.5870 C   0  0  0  0  0  0  0  0  0  0  0  0
   22.5850    5.4580   -0.4740 O   0  0  0  0  0  0  0  0  0  0  0  0
   23.3750    3.9510    2.1720 C   0  0  0  0  0  0  0  0  0  0  0  0
   24.6290    4.0260    3.0040 C   0  0  0  0  0  0  0  0  0  0  0  0
   25.1760    5.1410    3.1560 O   0  5  0  0  0  0  0  0  0  0  0  0
   25.0600    2.9740    3.5050 O   0  0  0  0  0  0  0  0  0  0  0  0
   20.7520    4.8560    0.6420 N   0  0  0  0  0  0  0  0  0  0  0  0
   20.0070    4.6180   -0.5710 C   0  0  2  0  0  0  0  0  0  0  0  0
   18.5370    4.9090   -0.3610 C   0  0  0  0  0  0  0  0  0  0  0  0
   18.0550    4.9700    0.7710 O   0  0  0  0  0  0  0  0  0  0  0  0
   20.2040    3.1770   -1.0680 C   0  0  0  0  0  0  0  0  0  0  0  0
   19.6650    2.1270   -0.1510 C   0  0  0  0  0  0  0  0  0  0  0  0
   18.3280    1.7480   -0.2120 C   0  0  0  0  0  0  0  0  0  0  0  0
   20.5170    1.4280    0.6940 C   0  0  0  0  0  0  0  0  0  0  0  0
   17.8320    0.7480    0.6140 C   0  0  0  0  0  0  0  0  0  0  0  0
   20.0320    0.4310    1.5240 C   0  0  0  0  0  0  0  0  0  0  0  0
   18.6920    0.0740    1.4670 C   0  0  0  0  0  0  0  0  0  0  0  0
   17.8530    5.1190   -1.4730 N   0  0  0  0  0  0  0  0  0  0  0  0
   16.4490    5.4290   -1.4770 C   0  0  2  0  0  0  0  0  0  0  0  0
   15.6650    4.1390   -1.5100 C   0  0  0  0  0  0  0  0  0  0  0  0
   15.8320    3.3350   -2.4220 O   0  0  0  0  0  0  0  0  0  0  0  0
   16.0990    6.2370   -2.7320 C   0  0  0  0  0  0  0  0  0  0  0  0
   16.6960    7.5840   -2.7610 C   0  0  0  0  0  0  0  0  0  0  0  0
   17.8700    7.9430   -3.3430 C   0  0  0  0  0  0  0  0  0  0  0  0
   16.1440    8.7780   -2.2020 C   0  0  0  0  0  0  0  0  0  0  0  0
   18.0890    9.2790   -3.1770 N   0  0  0  0  0  0  0  0  0  0  0  0
   17.0580    9.8150   -2.4560 C   0  0  0  0  0  0  0  0  0  0  0  0
   14.9670    9.0740   -1.5240 C   0  0  0  0  0  0  0  0  0  0  0  0
   16.8340   11.1260   -2.0530 C   0  0  0  0  0  0  0  0  0  0  0  0
   14.7760   10.3780   -1.0650 C   0  0  0  0  0  0  0  0  0  0  0  0
   15.6890   11.3880   -1.3670 C   0  0  0  0  0  0  0  0  0  0  0  0
   14.6780    4.0480   -0.6310 N   0  0  0  0  0  0  0  0  0  0  0  0
   13.8370    2.8920   -0.5230 C   0  0  2  0  0  0  0  0  0  0  0  0
   12.7750    2.9820   -1.6050 C   0  0  0  0  0  0  0  0  0  0  0  0
   12.0070    3.9480   -1.6420 O   0  0  0  0  0  0  0  0  0  0  0  0
   13.1610    2.8780    0.8530 C   0  0  0  0  0  0  0  0  0  0  0  0
   12.0100    1.8800    0.8800 C   0  0  0  0  0  0  0  0  0  0  0  0
   14.1900    2.6170    1.9380 C   0  0  0  0  0  0  0  0  0  0  0  0
   12.8170    2.0770   -2.5760 N   0  0  0  0  0  0  0  0  0  0  0  0
   11.8080    2.1070   -3.6230 C   0  0  2  0  0  0  0  0  0  0  0  0
   10.5380    1.5440   -3.0630 C   0  0  0  0  0  0  0  0  0  0  0  0
   10.3960    0.3430   -2.9840 O   0  0  0  0  0  0  0  0  0  0  0  0
   12.2370    1.2970   -4.8540 C   0  0  0  0  0  0  0  0  0  0  0  0
   11.2240    1.3580   -6.0010 C   0  0  0  0  0  0  0  0  0  0  0  0
   11.6000    0.4140   -7.1320 C   0  0  0  0  0  0  0  0  0  0  0  0
   12.8180    0.8660   -7.8010 N   0  0  0  0  0  0  0  0  0  0  0  0
   14.0030    0.2880   -7.6740 C   0  0  0  0  0  3  0  0  0  0  0  0
   14.1300   -0.8240   -6.9610 N   0  0  0  0  0  0  0  0  0  0  0  0
   15.0550    0.8050   -8.2990 N   0  0  0  0  0  0  0  0  0  0  0  0
    9.5990    2.4060   -2.7030 N   0  0  0  0  0  0  0  0  0  0  0  0
    8.2820    1.9650   -2.2550 C   0  0  2  0  0  0  0  0  0  0  0  0
    7.3610    1.3950   -3.3640 C   0  0  0  0  0  0  0  0  0  0  0  0
    7.0670    2.0530   -4.3640 O   0  0  0  0  0  0  0  0  0  0  0  0
    7.5440    3.1210   -1.5560 C   0  0  0  0  0  0  0  0  0  0  0  0
    6.1870    2.6440   -1.0640 C   0  0  0  0  0  0  0  0  0  0  0  0
    8.3580    3.6840   -0.3950 C   0  0  0  0  0  0  0  0  0  0  0  0
    6.7620    0.2400   -3.0950 N   0  0  0  0  0  0  0  0  0  0  0  0
    5.8710   -0.3990   -4.0630 C   0  0  2  0  0  0  0  0  0  0  0  0
    4.6330    0.4740   -4.3110 C   0  0  0  0  0  0  0  0  0  0  0  0
    4.0690    1.0270   -3.3720 O   0  0  0  0  0  0  0  0  0  0  0  0
    5.4540   -1.7790   -3.5570 C   0  0  0  0  0  0  0  0  0  0  0  0
    4.1830    0.5690   -5.5720 N   0  0  0  0  0  0  0  0  0  0  0  0
    2.9120    1.2550   -5.8380 C   0  0  2  0  0  0  0  0  0  0  0  0
    1.6770    0.4050   -5.5230 C   0  0  0  0  0  0  0  0  0  0  0  0
    1.8080   -0.7390   -5.0810 O   0  5  0  0  0  0  0  0  0  0  0  0
    2.9910    1.5760   -7.3310 C   0  0  0  0  0  0  0  0  0  0  0  0
    3.9100    0.5480   -7.9010 C   0  0  0  0  0  0  0  0  0  0  0  0
    4.8370    0.0930   -6.8050 C   0  0  0  0  0  0  0  0  0  0  0  0
    0.5460    0.8610   -5.7100 O   0  0  0  0  0  0  0  0  0  0  0  0
   17.1154    6.3799   11.1495 H   0  0  0  0  0  0  0  0  0  0  0  0
   17.9544    5.0450   10.6765 H   0  0  0  0  0  0  0  0  0  0  0  0
   17.1669    5.9612    9.5584 H   0  0  0  0  0  0  0  0  0  0  0  0
   18.5575    7.8074    9.9196 H   0  0  0  0  0  0  0  0  0  0  0  0
   18.9001    7.2261   12.3614 H   0  0  0  0  0  0  0  0  0  0  0  0
   20.3309    7.8699   11.4867 H   0  0  0  0  0  0  0  0  0  0  0  0
   20.8225    6.0387   12.7874 H   0  0  0  0  0  0  0  0  0  0  0  0
   19.0451    4.5456    8.8875 H   0  0  0  0  0  0  0  0  0  0  0  0
   21.5554    5.0927    7.5369 H   0  0  0  0  0  0  0  0  0  0  0  0
   19.2973    3.1690    6.8108 H   0  0  0  0  0  0  0  0  0  0  0  0
   20.7620    2.7908    7.7794 H   0  0  0  0  0  0  0  0  0  0  0  0
   21.8957    6.4951    5.9571 H   0  0  0  0  0  0  0  0  0  0  0  0
   19.6233    7.2483    4.1822 H   0  0  0  0  0  0  0  0  0  0  0  0
   20.5767    8.9944    5.8218 H   0  0  0  0  0  0  0  0  0  0  0  0
   20.4185    9.4633    4.0950 H   0  0  0  0  0  0  0  0  0  0  0  0
   21.7345    5.0855    3.7702 H   0  0  0  0  0  0  0  0  0  0  0  0
   23.5901    6.0544    1.7922 H   0  0  0  0  0  0  0  0  0  0  0  0
   23.6176    3.4795    1.2083 H   0  0  0  0  0  0  0  0  0  0  0  0
   22.6336    3.3370    2.7043 H   0  0  0  0  0  0  0  0  0  0  0  0
   20.3157    4.7094    1.5298 H   0  0  0  0  0  0  0  0  0  0  0  0
   20.3861    5.3019   -1.3447 H   0  0  0  0  0  0  0  0  0  0  0  0
   21.2824    3.0016   -1.1951 H   0  0  0  0  0  0  0  0  0  0  0  0
   19.6990    3.0765   -2.0401 H   0  0  0  0  0  0  0  0  0  0  0  0
   17.6643    2.2399   -0.9138 H   0  0  0  0  0  0  0  0  0  0  0  0
   21.5746    1.6656    0.7041 H   0  0  0  0  0  0  0  0  0  0  0  0
   16.7780    0.4958    0.5919 H   0  0  0  0  0  0  0  0  0  0  0  0
   20.6981   -0.0698    2.2172 H   0  0  0  0  0  0  0  0  0  0  0  0
   18.3182   -0.7313    2.0890 H   0  0  0  0  0  0  0  0  0  0  0  0
   18.3326    5.0597   -2.3485 H   0  0  0  0  0  0  0  0  0  0  0  0
   16.1917    6.0054   -0.5761 H   0  0  0  0  0  0  0  0  0  0  0  0
   15.0052    6.3419   -2.7825 H   0  0  0  0  0  0  0  0  0  0  0  0
   16.4551    5.6814   -3.6121 H   0  0  0  0  0  0  0  0  0  0  0  0
   18.5396    7.2622   -3.8665 H   0  0  0  0  0  0  0  0  0  0  0  0
   18.9009    9.8006   -3.5370 H   0  0  0  0  0  0  0  0  0  0  0  0
   14.2160    8.3106   -1.3560 H   0  0  0  0  0  0  0  0  0  0  0  0
   17.5463   11.9117   -2.2773 H   0  0  0  0  0  0  0  0  0  0  0  0
   13.9040   10.6095   -0.4641 H   0  0  0  0  0  0  0  0  0  0  0  0
   15.4818   12.4032   -1.0484 H   0  0  0  0  0  0  0  0  0  0  0  0
   14.5124    4.8191   -0.0162 H   0  0  0  0  0  0  0  0  0  0  0  0
   14.4338    1.9773   -0.6542 H   0  0  0  0  0  0  0  0  0  0  0  0
   12.7358    3.8765    1.0321 H   0  0  0  0  0  0  0  0  0  0  0  0
   11.5414    1.8877    1.8752 H   0  0  0  0  0  0  0  0  0  0  0  0
   12.3934    0.8721    0.6631 H   0  0  0  0  0  0  0  0  0  0  0  0
   11.2642    2.1598    0.1214 H   0  0  0  0  0  0  0  0  0  0  0  0
   14.9932    3.3654    1.8692 H   0  0  0  0  0  0  0  0  0  0  0  0
   14.6143    1.6107    1.8066 H   0  0  0  0  0  0  0  0  0  0  0  0
   13.7082    2.6859    2.9245 H   0  0  0  0  0  0  0  0  0  0  0  0
   13.5355    1.3816   -2.5872 H   0  0  0  0  0  0  0  0  0  0  0  0
   11.6413    3.1503   -3.9292 H   0  0  0  0  0  0  0  0  0  0  0  0
   12.3625    0.2461   -4.5543 H   0  0  0  0  0  0  0  0  0  0  0  0
   13.1978    1.6926   -5.2151 H   0  0  0  0  0  0  0  0  0  0  0  0
   11.1883    2.3858   -6.3912 H   0  0  0  0  0  0  0  0  0  0  0  0
   10.2324    1.0770   -5.6166 H   0  0  0  0  0  0  0  0  0  0  0  0
   10.7783    0.3809   -7.8625 H   0  0  0  0  0  0  0  0  0  0  0  0
   11.7664   -0.5928   -6.7213 H   0  0  0  0  0  0  0  0  0  0  0  0
   12.7503    1.6912   -8.4137 H   0  0  0  0  0  0  0  0  0  0  0  0
   15.0528   -1.2711   -6.8641 H   0  0  0  0  0  0  0  0  0  0  0  0
   13.3057   -1.2400   -6.5045 H   0  0  0  0  0  0  0  0  0  0  0  0
   14.9528    1.6682   -8.8515 H   0  0  0  0  0  0  0  0  0  0  0  0
   15.9729    0.3426   -8.2311 H   0  0  0  0  0  0  0  0  0  0  0  0
    9.7979    3.3854   -2.7392 H   0  0  0  0  0  0  0  0  0  0  0  0
    8.4445    1.1630   -1.5199 H   0  0  0  0  0  0  0  0  0  0  0  0
    7.3880    3.9257   -2.2895 H   0  0  0  0  0  0  0  0  0  0  0  0
    5.6651    3.4743   -0.5658 H   0  0  0  0  0  0  0  0  0  0  0  0
    6.3251    1.8175   -0.3514 H   0  0  0  0  0  0  0  0  0  0  0  0
    5.5889    2.2952   -1.9187 H   0  0  0  0  0  0  0  0  0  0  0  0
    9.3363    4.0251   -0.7645 H   0  0  0  0  0  0  0  0  0  0  0  0
    8.5052    2.9009    0.3634 H   0  0  0  0  0  0  0  0  0  0  0  0
    7.8195    4.5320    0.0532 H   0  0  0  0  0  0  0  0  0  0  0  0
    6.9237   -0.2016   -2.2125 H   0  0  0  0  0  0  0  0  0  0  0  0
    6.4116   -0.5200   -5.0133 H   0  0  0  0  0  0  0  0  0  0  0  0
    4.7846   -2.2517   -4.2908 H   0  0  0  0  0  0  0  0  0  0  0  0
    4.9290   -1.6740   -2.5961 H   0  0  0  0  0  0  0  0  0  0  0  0
    6.3481   -2.4049   -3.4199 H   0  0  0  0  0  0  0  0  0  0  0  0
    2.8558    2.1816   -5.2480 H   0  0  0  0  0  0  0  0  0  0  0  0
    3.3967    2.5863   -7.4879 H   0  0  0  0  0  0  0  0  0  0  0  0
    1.9961    1.5043   -7.7947 H   0  0  0  0  0  0  0  0  0  0  0  0
    4.4928    0.9845   -8.7255 H   0  0  0  0  0  0  0  0  0  0  0  0
    3.3276   -0.3065   -8.2759 H   0  0  0  0  0  0  0  0  0  0  0  0
    4.9310   -1.0030   -6.8009 H   0  0  0  0  0  0  0  0  0  0  0  0
    5.8327    0.5460   -6.9206 H   0  0  0  0  0  0  0  0  0  0  0  0
  1  2  1  0  0  0  0
  1 94  1  0  0  0  0
  1 95  1  0  0  0  0
  1 96  1  0  0  0  0
  2  3  1  0  0  0  0
  2  5  1  0  0  0  0
  2 97  1  6  0  0  0
  3  4  2  0  0  0  0
  3  7  1  0  0  0  0
  5  6  1  0  0  0  0
  5 98  1  0  0  0  0
  5 99  1  0  0  0  0
  6100  1  0  0  0  0
  7  8  1  0  0  0  0
  7101  1  0  0  0  0
  8  9  1  0  0  0  0
  8 11  1  0  0  0  0
  8102  1  1  0  0  0
  9 10  2  0  0  0  0
  9 15  1  0  0  0  0
 11 12  1  0  0  0  0
 11103  1  0  0  0  0
 11104  1  0  0  0  0
 12 13  1  0  0  0  0
 12 14  2  0  0  0  0
 15 16  1  0  0  0  0
 15105  1  0  0  0  0
 16 17  1  0  0  0  0
 16 19  1  0  0  0  0
 16106  1  6  0  0  0
 17 18  2  0  0  0  0
 17 23  1  0  0  0  0
 19 20  1  0  0  0  0
 19107  1  0  0  0  0
 19108  1  0  0  0  0
 20 21  1  0  0  0  0
 20 22  2  0  0  0  0
 23 24  1  0  0  0  0
 23109  1  0  0  0  0
 24 25  1  0  0  0  0
 24 27  1  0  0  0  0
 24110  1  6  0  0  0
 25 26  2  0  0  0  0
 25 31  1  0  0  0  0
 27 28  1  0  0  0  0
 27111  1  0  0  0  0
 27112  1  0  0  0  0
 28 29  1  0  0  0  0
 28 30  2  0  0  0  0
 31 32  1  0  0  0  0
 31113  1  0  0  0  0
 32 33  1  0  0  0  0
 32 35  1  0  0  0  0
 32114  1  6  0  0  0
 33 34  2  0  0  0  0
 33 42  1  0  0  0  0
 35 36  1  0  0  0  0
 35115  1  0  0  0  0
 35116  1  0  0  0  0
 36 37  2  0  0  0  0
 36 38  1  0  0  0  0
 37 39  1  0  0  0  0
 37117  1  0  0  0  0
 38 40  2  0  0  0  0
 38118  1  0  0  0  0
 39 41  2  0  0  0  0
 39119  1  0  0  0  0
 40 41  1  0  0  0  0
 40120  1  0  0  0  0
 41121  1  0  0  0  0
 42 43  1  0  0  0  0
 42122  1  0  0  0  0
 43 44  1  0  0  0  0
 43 46  1  0  0  0  0
 43123  1  1  0  0  0
 44 45  2  0  0  0  0
 44 56  1  0  0  0  0
 46 47  1  0  0  0  0
 46124  1  0  0  0  0
 46125  1  0  0  0  0
 47 48  2  0  0  0  0
 47 49  1  0  0  0  0
 48 50  1  0  0  0  0
 48126  1  0  0  0  0
 49 51  2  0  0  0  0
 49 52  1  0  0  0  0
 50 51  1  0  0  0  0
 50127  1  0  0  0  0
 51 53  1  0  0  0  0
 52 54  2  0  0  0  0
 52128  1  0  0  0  0
 53 55  2  0  0  0  0
 53129  1  0  0  0  0
 54 55  1  0  0  0  0
 54130  1  0  0  0  0
 55131  1  0  0  0  0
 56 57  1  0  0  0  0
 56132  1  0  0  0  0
 57 58  1  0  0  0  0
 57 60  1  0  0  0  0
 57133  1  6  0  0  0
 58 59  2  0  0  0  0
 58 63  1  0  0  0  0
 60 61  1  0  0  0  0
 60 62  1  0  0  0  0
 60134  1  0  0  0  0
 61135  1  0  0  0  0
 61136  1  0  0  0  0
 61137  1  0  0  0  0
 62138  1  0  0  0  0
 62139  1  0  0  0  0
 62140  1  0  0  0  0
 63 64  1  0  0  0  0
 63141  1  0  0  0  0
 64 65  1  0  0  0  0
 64 67  1  0  0  0  0
 64142  1  6  0  0  0
 65 66  2  0  0  0  0
 65 74  1  0  0  0  0
 67 68  1  0  0  0  0
 67143  1  0  0  0  0
 67144  1  0  0  0  0
 68 69  1  0  0  0  0
 68145  1  0  0  0  0
 68146  1  0  0  0  0
 69 70  1  0  0  0  0
 69147  1  0  0  0  0
 69148  1  0  0  0  0
 70 71  1  0  0  0  0
 70149  1  0  0  0  0
 71 72  1  0  0  0  0
 71 73  1  0  0  0  0
 72150  1  0  0  0  0
 72151  1  0  0  0  0
 73152  1  0  0  0  0
 73153  1  0  0  0  0
 74 75  1  0  0  0  0
 74154  1  0  0  0  0
 75 76  1  0  0  0  0
 75 78  1  0  0  0  0
 75155  1  1  0  0  0
 76 77  2  0  0  0  0
 76 81  1  0  0  0  0
 78 79  1  0  0  0  0
 78 80  1  0  0  0  0
 78156  1  0  0  0  0
 79157  1  0  0  0  0
 79158  1  0  0  0  0
 79159  1  0  0  0  0
 80160  1  0  0  0  0
 80161  1  0  0  0  0
 80162  1  0  0  0  0
 81 82  1  0  0  0  0
 81163  1  0  0  0  0
 82 83  1  0  0  0  0
 82 85  1  0  0  0  0
 82164  1  6  0  0  0
 83 84  2  0  0  0  0
 83 86  1  0  0  0  0
 85165  1  0  0  0  0
 85166  1  0  0  0  0
 85167  1  0  0  0  0
 86 87  1  0  0  0  0
 86 92  1  0  0  0  0
 87 88  1  0  0  0  0
 87 90  1  0  0  0  0
 87168  1  1  0  0  0
 88 89  1  0  0  0  0
 88 93  2  0  0  0  0
 90 91  1  0  0  0  0
 90169  1  0  0  0  0
 90170  1  0  0  0  0
 91 92  1  0  0  0  0
 91171  1  0  0  0  0
 91172  1  0  0  0  0
 92173  1  0  0  0  0
 92174  1  0  0  0  0
M  CHG  5   1   1  13  -1  21  -1  29  -1  89  -1
M  END
