4xcb_ligand
 OpenBabel08222323353D

 76 79  0  0  1  0  0  0  0  0999 V2000
   24.6340  258.2790  215.8630 C   0  0  1  0  0  0  0  0  0  0  0  0
   26.1420  258.2370  215.9660 C   0  0  1  0  0  0  0  0  0  0  0  0
   26.6300  259.3950  216.8240 C   0  0  0  0  0  0  0  0  0  0  0  0
   26.1840  260.7270  216.2210 C   0  0  1  0  0  0  0  0  0  0  0  0
   24.6700  260.7610  215.9960 C   0  0  2  0  0  0  0  0  0  0  0  0
   24.1740  259.5720  215.2330 C   0  0  2  0  0  0  0  0  0  0  0  0
   26.5140  257.0110  216.5620 N   0  3  0  0  0  0  0  0  0  0  0  0
   24.2320  257.2140  215.0330 O   0  0  0  0  0  0  0  0  0  0  0  0
   26.5530  261.7750  217.1100 N   0  3  0  0  0  0  0  0  0  0  0  0
   27.9680  262.0760  216.9140 C   0  0  0  0  0  0  0  0  0  0  0  0
   24.3660  261.9200  215.2500 O   0  0  0  0  0  0  0  0  0  0  0  0
   20.6500  259.1220  214.1040 C   0  0  2  0  0  0  0  0  0  0  0  0
   22.1250  259.3950  213.9860 C   0  0  1  0  0  0  0  0  0  0  0  0
   22.4330  260.5050  213.1790 O   0  0  0  0  0  0  0  0  0  0  0  0
   21.9440  260.3190  211.8800 C   0  0  1  0  0  0  0  0  0  0  0  0
   20.4610  260.5090  211.9420 C   0  0  1  0  0  0  0  0  0  0  0  0
   19.8840  259.3690  212.8770 C   0  0  2  0  0  0  0  0  0  0  0  0
   22.7180  259.6070  215.2640 O   0  0  0  0  0  0  0  0  0  0  0  0
   22.5800  261.3600  210.9620 C   0  0  0  0  0  0  0  0  0  0  0  0
   23.9570  261.0180  210.7830 O   0  0  0  0  0  0  0  0  0  0  0  0
   20.1480  261.7450  212.4660 O   0  0  0  0  0  0  0  0  0  0  0  0
   18.6070  259.7080  213.2230 O   0  0  0  0  0  0  0  0  0  0  0  0
   18.5540  259.6660  214.6620 C   0  0  1  0  0  0  0  0  0  0  0  0
   17.6150  260.7200  215.1450 C   0  0  1  0  0  0  0  0  0  0  0  0
   17.2790  260.4940  216.6110 C   0  0  2  0  0  0  0  0  0  0  0  0
   16.7890  259.0800  216.8490 C   0  0  2  0  0  0  0  0  0  0  0  0
   17.8400  258.1350  216.3750 C   0  0  2  0  0  0  0  0  0  0  0  0
   18.0770  258.3880  215.0090 O   0  0  0  0  0  0  0  0  0  0  0  0
   19.9410  259.8710  215.1700 O   0  0  0  0  0  0  0  0  0  0  0  0
   18.1980  262.0240  215.0470 O   0  0  0  0  0  0  0  0  0  0  0  0
   16.3280  261.4560  217.0060 O   0  0  0  0  0  0  0  0  0  0  0  0
   15.5600  258.8230  216.1650 O   0  0  0  0  0  0  0  0  0  0  0  0
   17.3710  256.6760  216.5240 C   0  0  2  0  0  0  0  0  0  0  0  0
   18.5670  255.7600  216.5440 C   0  0  0  0  0  0  0  0  0  0  0  0
   19.2500  255.8230  217.7790 O   0  0  0  0  0  0  0  0  0  0  0  0
   16.5870  256.3380  215.3950 N   0  3  0  0  0  0  0  0  0  0  0  0
   24.1882  258.1741  216.8631 H   0  0  0  0  0  0  0  0  0  0  0  0
   26.5855  258.3118  214.9622 H   0  0  0  0  0  0  0  0  0  0  0  0
   27.7285  259.3701  216.8763 H   0  0  0  0  0  0  0  0  0  0  0  0
   26.2123  259.2973  217.8369 H   0  0  0  0  0  0  0  0  0  0  0  0
   26.6906  260.8709  215.2553 H   0  0  0  0  0  0  0  0  0  0  0  0
   24.1627  260.7984  216.9713 H   0  0  0  0  0  0  0  0  0  0  0  0
   24.5342  259.6224  214.1949 H   0  0  0  0  0  0  0  0  0  0  0  0
   26.1887  256.2472  215.9903 H   0  0  0  0  0  0  0  0  0  0  0  0
   26.1007  256.9441  217.4789 H   0  0  0  0  0  0  0  0  0  0  0  0
   27.5179  256.9671  216.6418 H   0  0  0  0  0  0  0  0  0  0  0  0
   23.2856  257.2180  214.9507 H   0  0  0  0  0  0  0  0  0  0  0  0
   26.3967  261.4834  218.0621 H   0  0  0  0  0  0  0  0  0  0  0  0
   26.0012  262.5957  216.9150 H   0  0  0  0  0  0  0  0  0  0  0  0
   28.2684  262.8856  217.5954 H   0  0  0  0  0  0  0  0  0  0  0  0
   28.1351  262.3916  215.8736 H   0  0  0  0  0  0  0  0  0  0  0  0
   28.5667  261.1777  217.1254 H   0  0  0  0  0  0  0  0  0  0  0  0
   24.7947  261.8719  214.4036 H   0  0  0  0  0  0  0  0  0  0  0  0
   20.5640  258.0513  214.3410 H   0  0  0  0  0  0  0  0  0  0  0  0
   22.5865  258.5061  213.5312 H   0  0  0  0  0  0  0  0  0  0  0  0
   22.1824  259.3078  211.5187 H   0  0  0  0  0  0  0  0  0  0  0  0
   20.0312  260.4224  210.9332 H   0  0  0  0  0  0  0  0  0  0  0  0
   19.8659  258.4340  212.2978 H   0  0  0  0  0  0  0  0  0  0  0  0
   22.5007  262.3574  211.4191 H   0  0  0  0  0  0  0  0  0  0  0  0
   22.0673  261.3608  209.9888 H   0  0  0  0  0  0  0  0  0  0  0  0
   24.3939  261.0160  211.6266 H   0  0  0  0  0  0  0  0  0  0  0  0
   19.2038  261.8332  212.5241 H   0  0  0  0  0  0  0  0  0  0  0  0
   16.6958  260.6816  214.5421 H   0  0  0  0  0  0  0  0  0  0  0  0
   18.1915  260.6412  217.2073 H   0  0  0  0  0  0  0  0  0  0  0  0
   16.6281  258.9345  217.9274 H   0  0  0  0  0  0  0  0  0  0  0  0
   18.7628  258.2873  216.9541 H   0  0  0  0  0  0  0  0  0  0  0  0
   18.4223  262.2021  214.1412 H   0  0  0  0  0  0  0  0  0  0  0  0
   16.1452  261.3569  217.9330 H   0  0  0  0  0  0  0  0  0  0  0  0
   14.8955  259.4284  216.4719 H   0  0  0  0  0  0  0  0  0  0  0  0
   16.7858  256.5591  217.4481 H   0  0  0  0  0  0  0  0  0  0  0  0
   19.2564  256.0555  215.7394 H   0  0  0  0  0  0  0  0  0  0  0  0
   18.2283  254.7271  216.3758 H   0  0  0  0  0  0  0  0  0  0  0  0
   19.9960  255.2353  217.7574 H   0  0  0  0  0  0  0  0  0  0  0  0
   15.7774  256.9372  215.3566 H   0  0  0  0  0  0  0  0  0  0  0  0
   16.2908  255.3772  215.4671 H   0  0  0  0  0  0  0  0  0  0  0  0
   17.1345  256.4589  214.5573 H   0  0  0  0  0  0  0  0  0  0  0  0
  1  2  1  0  0  0  0
  1  8  1  0  0  0  0
  1 37  1  1  0  0  0
  2  3  1  0  0  0  0
  2  7  1  0  0  0  0
  2 38  1  6  0  0  0
  3 39  1  0  0  0  0
  3 40  1  0  0  0  0
  4  3  1  0  0  0  0
  4  9  1  0  0  0  0
  4 41  1  6  0  0  0
  5  4  1  0  0  0  0
  5 11  1  0  0  0  0
  5 42  1  1  0  0  0
  6  1  1  0  0  0  0
  6  5  1  0  0  0  0
  6 43  1  6  0  0  0
  7 44  1  0  0  0  0
  7 45  1  0  0  0  0
  7 46  1  0  0  0  0
  8 47  1  0  0  0  0
  9 10  1  0  0  0  0
  9 48  1  0  0  0  0
  9 49  1  0  0  0  0
 10 50  1  0  0  0  0
 10 51  1  0  0  0  0
 10 52  1  0  0  0  0
 11 53  1  0  0  0  0
 12 17  1  0  0  0  0
 12 29  1  0  0  0  0
 12 54  1  1  0  0  0
 13 12  1  0  0  0  0
 13 14  1  0  0  0  0
 13 18  1  0  0  0  0
 13 55  1  6  0  0  0
 14 15  1  0  0  0  0
 15 16  1  0  0  0  0
 15 19  1  0  0  0  0
 15 56  1  6  0  0  0
 16 17  1  0  0  0  0
 16 21  1  0  0  0  0
 16 57  1  6  0  0  0
 17 22  1  0  0  0  0
 17 58  1  6  0  0  0
 18  6  1  0  0  0  0
 19 20  1  0  0  0  0
 19 59  1  0  0  0  0
 19 60  1  0  0  0  0
 20 61  1  0  0  0  0
 21 62  1  0  0  0  0
 23 22  1  6  0  0  0
 23 24  1  0  0  0  0
 23 28  1  0  0  0  0
 23 29  1  0  0  0  0
 24 25  1  0  0  0  0
 24 30  1  0  0  0  0
 24 63  1  6  0  0  0
 25 26  1  0  0  0  0
 25 31  1  0  0  0  0
 25 64  1  1  0  0  0
 26 27  1  0  0  0  0
 26 32  1  0  0  0  0
 26 65  1  1  0  0  0
 27 28  1  0  0  0  0
 27 33  1  0  0  0  0
 27 66  1  1  0  0  0
 30 67  1  0  0  0  0
 31 68  1  0  0  0  0
 32 69  1  0  0  0  0
 33 34  1  0  0  0  0
 33 36  1  0  0  0  0
 33 70  1  1  0  0  0
 34 35  1  0  0  0  0
 34 71  1  0  0  0  0
 34 72  1  0  0  0  0
 35 73  1  0  0  0  0
 36 74  1  0  0  0  0
 36 75  1  0  0  0  0
 36 76  1  0  0  0  0
M  CHG  3   7   1   9   1  36   1
M  END
