4xct_ligand
 OpenBabel08222323353D

 52 53  0  0  1  0  0  0  0  0999 V2000
   15.6420  -20.3360   18.4020 O   0  0  0  0  0  0  0  0  0  0  0  0
   16.5790  -19.3450   17.8770 S   0  0  0  0  0  0  0  0  0  0  0  0
   16.2030  -18.9270   16.5200 O   0  0  0  0  0  0  0  0  0  0  0  0
   17.9640  -19.8790   17.9560 N   0  0  0  0  0  0  0  0  0  0  0  0
   18.0350  -21.0780   18.3630 O   0  0  0  0  0  0  0  0  0  0  0  0
   18.3210  -21.3320   19.7450 C   0  0  0  0  0  0  0  0  0  0  0  0
   17.3600  -22.3860   20.3190 C   0  0  0  0  0  0  0  0  0  0  0  0
   19.7600  -21.8150   19.9280 C   0  0  0  0  0  0  0  0  0  0  0  0
   18.8060  -19.5610   16.9080 C   0  0  2  0  0  0  0  0  0  0  0  0
   19.8660  -20.6600   16.5750 C   0  0  0  0  0  0  0  0  0  0  0  0
   19.3240  -21.7790   15.6710 C   0  0  0  0  0  0  0  0  0  0  0  0
   21.0650  -20.0570   15.8440 C   0  0  0  0  0  0  0  0  0  0  0  0
   19.6060  -18.3340   17.3940 C   0  0  0  0  0  0  0  0  0  0  0  0
   20.2800  -18.4110   18.3690 O   0  0  0  0  0  0  0  0  0  0  0  0
   19.5620  -17.0850   16.6670 N   0  0  0  0  0  0  0  0  0  0  0  0
   20.2050  -16.1780   17.0550 O   0  0  0  0  0  0  0  0  0  0  0  0
   16.6290  -17.8530   18.9560 C   0  0  0  0  0  0  0  0  0  0  0  0
   16.7560  -16.5550   18.3680 C   0  0  0  0  0  0  0  0  0  0  0  0
   16.8190  -15.3860   19.2490 C   0  0  0  0  0  0  0  0  0  0  0  0
   16.7530  -15.5510   20.6720 C   0  0  0  0  0  0  0  0  0  0  0  0
   16.6410  -16.8460   21.2600 C   0  0  0  0  0  0  0  0  0  0  0  0
   16.5740  -18.0150   20.3820 C   0  0  0  0  0  0  0  0  0  0  0  0
   16.8240  -14.2910   21.5710 C   0  0  0  0  0  0  0  0  0  0  0  0
   17.5180  -14.3450   22.9420 C   0  0  0  0  0  0  0  0  0  0  0  0
   17.5470  -13.2230   23.7470 C   0  0  0  0  0  0  0  0  0  0  0  0
   16.8450  -11.9300   23.2740 C   0  0  0  0  0  0  0  0  0  0  0  0
   16.2070  -11.8950   22.0860 C   0  0  0  0  0  0  0  0  0  0  0  0
   16.1720  -13.1660   21.1740 C   0  0  0  0  0  0  0  0  0  0  0  0
   18.1904  -20.3935   20.3037 H   0  0  0  0  0  0  0  0  0  0  0  0
   17.5996  -22.5626   21.3780 H   0  0  0  0  0  0  0  0  0  0  0  0
   17.4680  -23.3254   19.7570 H   0  0  0  0  0  0  0  0  0  0  0  0
   16.3249  -22.0240   20.2328 H   0  0  0  0  0  0  0  0  0  0  0  0
   19.9512  -22.0016   20.9951 H   0  0  0  0  0  0  0  0  0  0  0  0
   20.4547  -21.0455   19.5602 H   0  0  0  0  0  0  0  0  0  0  0  0
   19.9095  -22.7454   19.3606 H   0  0  0  0  0  0  0  0  0  0  0  0
   18.2150  -19.3303   16.0094 H   0  0  0  0  0  0  0  0  0  0  0  0
   20.2035  -21.1031   17.5235 H   0  0  0  0  0  0  0  0  0  0  0  0
   20.1202  -22.5133   15.4791 H   0  0  0  0  0  0  0  0  0  0  0  0
   18.9851  -21.3482   14.7173 H   0  0  0  0  0  0  0  0  0  0  0  0
   18.4790  -22.2763   16.1696 H   0  0  0  0  0  0  0  0  0  0  0  0
   21.4942  -19.2459   16.4505 H   0  0  0  0  0  0  0  0  0  0  0  0
   20.7387  -19.6556   14.8732 H   0  0  0  0  0  0  0  0  0  0  0  0
   21.8252  -20.8354   15.6822 H   0  0  0  0  0  0  0  0  0  0  0  0
   16.8047  -16.4386   17.2914 H   0  0  0  0  0  0  0  0  0  0  0  0
   16.9158  -14.3935   18.8239 H   0  0  0  0  0  0  0  0  0  0  0  0
   16.6062  -16.9620   22.3372 H   0  0  0  0  0  0  0  0  0  0  0  0
   16.4825  -19.0069   20.8096 H   0  0  0  0  0  0  0  0  0  0  0  0
   17.9848  -15.2642   23.2770 H   0  0  0  0  0  0  0  0  0  0  0  0
   18.0579  -13.2492   24.7027 H   0  0  0  0  0  0  0  0  0  0  0  0
   16.8654  -11.0458   23.9007 H   0  0  0  0  0  0  0  0  0  0  0  0
   15.7172  -10.9838   21.7622 H   0  0  0  0  0  0  0  0  0  0  0  0
   15.6326  -13.1497   20.2339 H   0  0  0  0  0  0  0  0  0  0  0  0
  1  2  2  0  0  0  0
  2  3  2  0  0  0  0
  2  4  1  0  0  0  0
  2 17  1  0  0  0  0
  4  5  1  0  0  0  0
  4  9  1  0  0  0  0
  5  6  1  0  0  0  0
  6  7  1  0  0  0  0
  6  8  1  0  0  0  0
  6 29  1  0  0  0  0
  7 30  1  0  0  0  0
  7 31  1  0  0  0  0
  7 32  1  0  0  0  0
  8 33  1  0  0  0  0
  8 34  1  0  0  0  0
  8 35  1  0  0  0  0
  9 10  1  0  0  0  0
  9 13  1  0  0  0  0
  9 36  1  6  0  0  0
 10 11  1  0  0  0  0
 10 12  1  0  0  0  0
 10 37  1  0  0  0  0
 11 38  1  0  0  0  0
 11 39  1  0  0  0  0
 11 40  1  0  0  0  0
 12 41  1  0  0  0  0
 12 42  1  0  0  0  0
 12 43  1  0  0  0  0
 13 14  2  0  0  0  0
 13 15  1  0  0  0  0
 15 16  2  0  0  0  0
 17 18  2  0  0  0  0
 17 22  1  0  0  0  0
 18 19  1  0  0  0  0
 18 44  1  0  0  0  0
 19 20  2  0  0  0  0
 19 45  1  0  0  0  0
 20 21  1  0  0  0  0
 20 23  1  0  0  0  0
 21 22  2  0  0  0  0
 21 46  1  0  0  0  0
 22 47  1  0  0  0  0
 23 24  2  0  0  0  0
 23 28  1  0  0  0  0
 24 25  1  0  0  0  0
 24 48  1  0  0  0  0
 25 26  2  0  0  0  0
 25 49  1  0  0  0  0
 26 27  1  0  0  0  0
 26 50  1  0  0  0  0
 27 28  2  0  0  0  0
 27 51  1  0  0  0  0
 28 52  1  0  0  0  0
M  END
