4xe0_ligand
 OpenBabel08222323353D

 49 53  0  0  1  0  0  0  0  0999 V2000
   -3.0990  -14.1880   23.6450 C   0  0  0  0  0  0  0  0  0  0  0  0
   -2.7890  -16.3660   24.6000 C   0  0  0  0  0  0  0  0  0  0  0  0
   -4.5080  -16.0300   22.9510 C   0  0  0  0  0  0  0  0  0  0  0  0
   -7.5970  -14.5410   23.5990 C   0  0  0  0  0  0  0  0  0  0  0  0
   -8.7690  -14.3380   22.6510 C   0  0  0  0  0  0  0  0  0  0  0  0
   -7.0420   -9.9920   25.2280 C   0  0  0  0  0  0  0  0  0  0  0  0
   -4.9980  -11.2850   17.7880 C   0  0  0  0  0  0  0  0  0  0  0  0
   -6.1650  -10.6730   18.2330 C   0  0  0  0  0  0  0  0  0  0  0  0
   -6.6670  -10.9930   19.5000 C   0  0  0  0  0  0  0  0  0  0  0  0
   -6.0110  -11.9180   20.3270 C   0  0  0  0  0  0  0  0  0  0  0  0
   -4.8590  -12.5380   19.8720 C   0  0  0  0  0  0  0  0  0  0  0  0
   -4.3640  -12.2210   18.6040 C   0  0  0  0  0  0  0  0  0  0  0  0
   -3.2470  -12.8160   18.1730 F   0  0  0  0  0  0  0  0  0  0  0  0
   -6.5270  -12.2030   21.5840 N   0  0  0  0  0  0  0  0  0  0  0  0
   -4.1940  -13.5210   20.7630 C   0  0  0  0  0  0  0  0  0  0  0  0
   -3.1750  -14.0670   20.4020 O   0  0  0  0  0  0  0  0  0  0  0  0
   -4.8070  -13.7570   21.9950 N   0  0  0  0  0  0  0  0  0  0  0  0
   -4.1550  -14.6760   22.8700 C   0  0  0  0  0  0  0  0  0  0  0  0
   -2.4080  -15.0300   24.5110 C   0  0  0  0  0  0  0  0  0  0  0  0
   -3.8270  -16.8710   23.8240 C   0  0  0  0  0  0  0  0  0  0  0  0
   -5.9620  -13.0730   22.3480 C   0  0  0  0  0  0  0  0  0  0  0  0
   -6.6120  -13.3560   23.7120 C   0  0  1  0  0  0  0  0  0  0  0  0
   -7.2550  -12.1070   24.1100 N   0  0  0  0  0  0  0  0  0  0  0  0
   -6.4770  -11.1650   24.7280 C   0  0  0  0  0  0  0  0  0  0  0  0
   -6.2030   -9.0860   25.8370 C   0  0  0  0  0  0  0  0  0  0  0  0
   -4.8690   -9.1820   26.0140 N   0  0  0  0  0  0  0  0  0  0  0  0
   -4.4110  -10.3460   25.5000 C   0  0  0  0  0  0  0  0  0  0  0  0
   -5.1190  -11.3250   24.8750 N   0  0  0  0  0  0  0  0  0  0  0  0
   -8.3410   -9.5400   25.2300 N   0  0  0  0  0  0  0  0  0  0  0  0
   -8.2750   -8.3860   25.8440 C   0  0  0  0  0  0  0  0  0  0  0  0
   -7.0130   -8.0650   26.2290 N   0  0  0  0  0  0  0  0  0  0  0  0
   -2.8158  -13.1443   23.5707 H   0  0  0  0  0  0  0  0  0  0  0  0
   -2.2678  -17.0240   25.2858 H   0  0  0  0  0  0  0  0  0  0  0  0
   -5.3098  -16.4204   22.3347 H   0  0  0  0  0  0  0  0  0  0  0  0
   -7.0311  -15.4187   23.2534 H   0  0  0  0  0  0  0  0  0  0  0  0
   -8.0039  -14.7386   24.6017 H   0  0  0  0  0  0  0  0  0  0  0  0
   -9.4001  -15.2389   22.6501 H   0  0  0  0  0  0  0  0  0  0  0  0
   -8.3909  -14.1542   21.6345 H   0  0  0  0  0  0  0  0  0  0  0  0
   -9.3637  -13.4742   22.9828 H   0  0  0  0  0  0  0  0  0  0  0  0
   -4.5856  -11.0368   16.8167 H   0  0  0  0  0  0  0  0  0  0  0  0
   -6.6806   -9.9555   17.6050 H   0  0  0  0  0  0  0  0  0  0  0  0
   -7.5774  -10.5186   19.8481 H   0  0  0  0  0  0  0  0  0  0  0  0
   -1.5856  -14.6514   25.1072 H   0  0  0  0  0  0  0  0  0  0  0  0
   -4.1040  -17.9163   23.8996 H   0  0  0  0  0  0  0  0  0  0  0  0
   -5.8380  -13.6169   24.4488 H   0  0  0  0  0  0  0  0  0  0  0  0
   -8.2559  -11.9409   23.9326 H   0  0  0  0  0  0  0  0  0  0  0  0
   -3.3457  -10.5208   25.5984 H   0  0  0  0  0  0  0  0  0  0  0  0
   -9.1737  -10.0029   24.8386 H   0  0  0  0  0  0  0  0  0  0  0  0
   -9.1404   -7.7507   26.0267 H   0  0  0  0  0  0  0  0  0  0  0  0
  1 19  1  0  0  0  0
  1 32  1  0  0  0  0
  2 33  1  0  0  0  0
  3 20  2  0  0  0  0
  3 34  1  0  0  0  0
  4  5  1  0  0  0  0
  4 35  1  0  0  0  0
  4 36  1  0  0  0  0
  5 37  1  0  0  0  0
  5 38  1  0  0  0  0
  5 39  1  0  0  0  0
  6 25  1  0  0  0  0
  6 29  1  0  0  0  0
  7 40  1  0  0  0  0
  8  7  2  0  0  0  0
  8 41  1  0  0  0  0
  9  8  1  0  0  0  0
  9 42  1  0  0  0  0
 10  9  2  0  0  0  0
 10 11  1  0  0  0  0
 11 12  2  0  0  0  0
 12  7  1  0  0  0  0
 12 13  1  0  0  0  0
 14 10  1  0  0  0  0
 15 11  1  0  0  0  0
 15 16  2  0  0  0  0
 17 15  1  0  0  0  0
 17 18  1  0  0  0  0
 18  1  2  0  0  0  0
 18  3  1  0  0  0  0
 19  2  2  0  0  0  0
 19 43  1  0  0  0  0
 20  2  1  0  0  0  0
 20 44  1  0  0  0  0
 21 14  2  0  0  0  0
 21 17  1  0  0  0  0
 22  4  1  0  0  0  0
 22 21  1  0  0  0  0
 22 45  1  1  0  0  0
 23 22  1  0  0  0  0
 23 24  1  0  0  0  0
 23 46  1  0  0  0  0
 24  6  2  0  0  0  0
 24 28  1  0  0  0  0
 25 26  2  0  0  0  0
 25 31  1  0  0  0  0
 26 27  1  0  0  0  0
 27 28  2  0  0  0  0
 27 47  1  0  0  0  0
 29 30  1  0  0  0  0
 29 48  1  0  0  0  0
 30 31  2  0  0  0  0
 30 49  1  0  0  0  0
M  END
