4xh2_ligand
 OpenBabel08222323353D

227226  0  0  1  0  0  0  0  0999 V2000
   30.5360    3.3680  140.7900 N   0  3  0  0  0  0  0  0  0  0  0  0
   31.0210    3.2910  139.3720 C   0  0  0  0  0  0  0  0  0  0  0  0
   32.4960    3.6450  139.2920 C   0  0  0  0  0  0  0  0  0  0  0  0
   33.3570    2.8290  139.6330 O   0  0  0  0  0  0  0  0  0  0  0  0
   32.7960    4.8660  138.8530 N   0  0  0  0  0  0  0  0  0  0  0  0
   34.1590    5.3790  138.9520 C   0  0  2  0  0  0  0  0  0  0  0  0
   34.4930    5.6900  140.4140 C   0  0  0  0  0  0  0  0  0  0  0  0
   35.6640    5.7540  140.7710 O   0  0  0  0  0  0  0  0  0  0  0  0
   34.3740    6.6130  138.0580 C   0  0  0  0  0  0  0  0  0  0  0  0
   33.8550    7.7960  138.6450 O   0  0  0  0  0  0  0  0  0  0  0  0
   33.4670    5.8720  141.2530 N   0  0  0  0  0  0  0  0  0  0  0  0
   33.6620    6.1030  142.6880 C   0  0  2  0  0  0  0  0  0  0  0  0
   34.2760    4.9010  143.3960 C   0  0  0  0  0  0  0  0  0  0  0  0
   35.0490    5.0670  144.3250 O   0  0  0  0  0  0  0  0  0  0  0  0
   32.3520    6.4820  143.3520 C   0  0  0  0  0  0  0  0  0  0  0  0
   33.9340    3.6960  142.9520 N   0  0  0  0  0  0  0  0  0  0  0  0
   34.4370    2.4650  143.5690 C   0  0  2  0  0  0  0  0  0  0  0  0
   35.7160    1.9010  142.9210 C   0  0  0  0  0  0  0  0  0  0  0  0
   36.3510    1.0240  143.4820 O   0  0  0  0  0  0  0  0  0  0  0  0
   33.3540    1.3650  143.5490 C   0  0  2  0  0  0  0  0  0  0  0  0
   33.6880    0.3490  144.5010 O   0  0  0  0  0  0  0  0  0  0  0  0
   33.2260    0.7510  142.1600 C   0  0  0  0  0  0  0  0  0  0  0  0
   36.0940    2.4090  141.7560 N   0  0  0  0  0  0  0  0  0  0  0  0
   37.1400    1.7880  140.9330 C   0  0  2  0  0  0  0  0  0  0  0  0
   38.5490    1.7880  141.5550 C   0  0  0  0  0  0  0  0  0  0  0  0
   39.2550    0.7780  141.5050 O   0  0  0  0  0  0  0  0  0  0  0  0
   37.1720    2.4750  139.5670 C   0  0  0  0  0  0  0  0  0  0  0  0
   38.1950    1.9490  138.5630 C   0  0  0  0  0  0  0  0  0  0  0  0
   38.2330    2.8610  137.3370 C   0  0  0  0  0  0  0  0  0  0  0  0
   36.8920    3.0210  136.7440 N   0  0  0  0  0  0  0  0  0  0  0  0
   36.3710    4.1600  136.2640 C   0  0  0  0  0  3  0  0  0  0  0  0
   37.0520    5.3080  136.2880 N   0  0  0  0  0  0  0  0  0  0  0  0
   35.1370    4.1540  135.7580 N   0  0  0  0  0  0  0  0  0  0  0  0
   38.9680    2.9140  142.1170 N   0  0  0  0  0  0  0  0  0  0  0  0
   40.3440    3.0400  142.6080 C   0  0  2  0  0  0  0  0  0  0  0  0
   40.6250    2.0780  143.7560 C   0  0  0  0  0  0  0  0  0  0  0  0
   41.6130    1.3470  143.7300 O   0  0  0  0  0  0  0  0  0  0  0  0
   40.6300    4.4770  143.0530 C   0  0  0  0  0  0  0  0  0  0  0  0
   40.6800    5.4720  141.9100 C   0  0  0  0  0  0  0  0  0  0  0  0
   40.8130    6.8950  142.4060 C   0  0  0  0  0  0  0  0  0  0  0  0
   39.8280    7.4410  142.9570 O   0  5  0  0  0  0  0  0  0  0  0  0
   41.9130    7.4510  142.2570 O   0  0  0  0  0  0  0  0  0  0  0  0
   39.7470    2.0740  144.7520 N   0  0  0  0  0  0  0  0  0  0  0  0
   39.9090    1.1890  145.9020 C   0  0  2  0  0  0  0  0  0  0  0  0
   39.7780   -0.2700  145.4850 C   0  0  0  0  0  0  0  0  0  0  0  0
   40.5590   -1.0990  145.9330 O   0  0  0  0  0  0  0  0  0  0  0  0
   38.9030    1.5110  147.0120 C   0  0  0  0  0  0  0  0  0  0  0  0
   39.0700    0.7180  148.3120 C   0  0  0  0  0  0  0  0  0  0  0  0
   40.5340    0.7080  148.7860 C   0  0  0  0  0  0  0  0  0  0  0  0
   38.1540    1.2870  149.3810 C   0  0  0  0  0  0  0  0  0  0  0  0
   38.8090   -0.5820  144.6240 N   0  0  0  0  0  0  0  0  0  0  0  0
   38.6570   -1.9530  144.1320 C   0  0  2  0  0  0  0  0  0  0  0  0
   39.9340   -2.4410  143.4110 C   0  0  0  0  0  0  0  0  0  0  0  0
   40.3900   -3.5520  143.6480 O   0  0  0  0  0  0  0  0  0  0  0  0
   37.4240   -2.0880  143.2260 C   0  0  0  0  0  0  0  0  0  0  0  0
   36.1160   -1.9150  143.9800 C   0  0  0  0  0  0  0  0  0  0  0  0
   36.1150   -1.9970  145.2320 O   0  5  0  0  0  0  0  0  0  0  0  0
   35.0840   -1.6960  143.3130 O   0  0  0  0  0  0  0  0  0  0  0  0
   40.5210   -1.6020  142.5600 N   0  0  0  0  0  0  0  0  0  0  0  0
   41.7860   -1.9540  141.9010 C   0  0  2  0  0  0  0  0  0  0  0  0
   42.9430   -2.0770  142.9070 C   0  0  0  0  0  0  0  0  0  0  0  0
   43.7540   -2.9950  142.8120 O   0  0  0  0  0  0  0  0  0  0  0  0
   42.1110   -0.9650  140.7770 C   0  0  0  0  0  0  0  0  0  0  0  0
   41.2510   -1.1760  139.5330 C   0  0  0  0  0  0  0  0  0  0  0  0
   41.5040   -0.1600  138.4300 C   0  0  0  0  0  0  0  0  0  0  0  0
   42.4810    0.6140  138.5280 O   0  5  0  0  0  0  0  0  0  0  0  0
   40.7160   -0.1350  137.4550 O   0  0  0  0  0  0  0  0  0  0  0  0
   43.0030   -1.1750  143.8870 N   0  0  0  0  0  0  0  0  0  0  0  0
   43.9640   -1.3080  144.9780 C   0  0  2  0  0  0  0  0  0  0  0  0
   43.8400   -2.6730  145.6590 C   0  0  0  0  0  0  0  0  0  0  0  0
   44.8360   -3.3600  145.8350 O   0  0  0  0  0  0  0  0  0  0  0  0
   43.8020   -0.1780  146.0140 C   0  0  0  0  0  0  0  0  0  0  0  0
   44.8920   -0.1110  147.1030 C   0  0  0  0  0  0  0  0  0  0  0  0
   45.2110    1.3170  147.5370 C   0  0  0  0  0  0  0  0  0  0  0  0
   44.5110   -0.9450  148.3130 C   0  0  0  0  0  0  0  0  0  0  0  0
   42.6210   -3.0720  146.0280 N   0  0  0  0  0  0  0  0  0  0  0  0
   42.4340   -4.3330  146.7710 C   0  0  2  0  0  0  0  0  0  0  0  0
   42.7810   -5.5610  145.9120 C   0  0  0  0  0  0  0  0  0  0  0  0
   43.4470   -6.4950  146.3820 O   0  0  0  0  0  0  0  0  0  0  0  0
   41.0020   -4.4540  147.3140 C   0  0  0  0  0  0  0  0  0  0  0  0
   40.5870   -3.3540  148.2860 C   0  0  0  0  0  0  0  0  0  0  0  0
   41.5430   -3.2820  149.8140 S   0  0  0  0  0  0  0  0  0  0  0  0
   41.0890   -4.8400  150.5760 C   0  0  0  0  0  0  0  0  0  0  0  0
   42.3440   -5.5380  144.6530 N   0  0  0  0  0  0  0  0  0  0  0  0
   42.5710   -6.6480  143.7300 C   0  0  2  0  0  0  0  0  0  0  0  0
   44.0600   -6.8750  143.4420 C   0  0  0  0  0  0  0  0  0  0  0  0
   44.4870   -8.0050  143.2010 O   0  0  0  0  0  0  0  0  0  0  0  0
   41.8030   -6.4190  142.4400 C   0  0  0  0  0  0  0  0  0  0  0  0
   44.8450   -5.8020  143.4940 N   0  0  0  0  0  0  0  0  0  0  0  0
   46.2760   -5.8580  143.1960 C   0  0  2  0  0  0  0  0  0  0  0  0
   47.1550   -6.3830  144.3440 C   0  0  0  0  0  0  0  0  0  0  0  0
   48.3330   -6.6300  144.1290 O   0  0  0  0  0  0  0  0  0  0  0  0
   46.7690   -4.4640  142.7850 C   0  0  0  0  0  0  0  0  0  0  0  0
   46.8590   -3.6190  143.9200 O   0  0  0  0  0  0  0  0  0  0  0  0
   46.6010   -6.5630  145.5430 N   0  0  0  0  0  0  0  0  0  0  0  0
   47.4100   -6.9250  146.7080 C   0  0  2  0  0  0  0  0  0  0  0  0
   48.0220   -8.3290  146.5960 C   0  0  0  0  0  0  0  0  0  0  0  0
   47.3850   -9.2630  146.0990 O   0  0  0  0  0  0  0  0  0  0  0  0
   46.5790   -6.8600  147.9870 C   0  0  0  0  0  0  0  0  0  0  0  0
   45.8930   -5.5420  148.3550 C   0  0  0  0  0  0  0  0  0  0  0  0
   44.9260   -5.7860  149.5000 C   0  0  0  0  0  0  0  0  0  0  0  0
   46.9110   -4.4740  148.7250 C   0  0  0  0  0  0  0  0  0  0  0  0
   49.2550   -8.4730  147.0770 N   0  0  0  0  0  0  0  0  0  0  0  0
   49.9540   -9.7650  147.0640 C   0  0  2  0  0  0  0  0  0  0  0  0
   50.5810  -10.1790  148.4140 C   0  0  0  0  0  0  0  0  0  0  0  0
   51.1700  -11.2620  148.5130 O   0  0  0  0  0  0  0  0  0  0  0  0
   51.0270   -9.7600  145.9670 C   0  0  0  0  0  0  0  0  0  0  0  0
   51.8920   -8.6470  146.1050 O   0  0  0  0  0  0  0  0  0  0  0  0
   50.4470   -9.3450  149.4460 N   0  0  0  0  0  0  0  0  0  0  0  0
   51.0620   -9.6250  150.7480 C   0  0  2  0  0  0  0  0  0  0  0  0
   50.5750   -8.6480  151.8120 C   0  0  0  0  0  0  0  0  0  0  0  0
   51.3600   -8.1730  152.6340 O   0  5  0  0  0  0  0  0  0  0  0  0
   52.5900   -9.5470  150.6450 C   0  0  0  0  0  0  0  0  0  0  0  0
   49.3890   -8.3190  151.8660 O   0  0  0  0  0  0  0  0  0  0  0  0
   29.5570    3.1303  140.8236 H   0  0  0  0  0  0  0  0  0  0  0  0
   30.6666    4.3044  141.1394 H   0  0  0  0  0  0  0  0  0  0  0  0
   31.0585    2.7209  141.3595 H   0  0  0  0  0  0  0  0  0  0  0  0
   30.4459    3.9964  138.7543 H   0  0  0  0  0  0  0  0  0  0  0  0
   30.8736    2.2684  138.9944 H   0  0  0  0  0  0  0  0  0  0  0  0
   32.0802    5.4373  138.4514 H   0  0  0  0  0  0  0  0  0  0  0  0
   34.8439    4.5913  138.6050 H   0  0  0  0  0  0  0  0  0  0  0  0
   33.8702    6.4449  137.0947 H   0  0  0  0  0  0  0  0  0  0  0  0
   35.4530    6.7449  137.8895 H   0  0  0  0  0  0  0  0  0  0  0  0
   34.0082    8.5307  138.0626 H   0  0  0  0  0  0  0  0  0  0  0  0
   32.5357    5.8498  140.8894 H   0  0  0  0  0  0  0  0  0  0  0  0
   34.3579    6.9478  142.7974 H   0  0  0  0  0  0  0  0  0  0  0  0
   32.5205    6.6505  144.4259 H   0  0  0  0  0  0  0  0  0  0  0  0
   31.6242    5.6681  143.2184 H   0  0  0  0  0  0  0  0  0  0  0  0
   31.9612    7.4023  142.8934 H   0  0  0  0  0  0  0  0  0  0  0  0
   33.3130    3.6267  142.1712 H   0  0  0  0  0  0  0  0  0  0  0  0
   34.6721    2.7005  144.6175 H   0  0  0  0  0  0  0  0  0  0  0  0
   32.3887    1.8131  143.8270 H   0  0  0  0  0  0  0  0  0  0  0  0
   34.5295   -0.0302  144.2758 H   0  0  0  0  0  0  0  0  0  0  0  0
   32.4495   -0.0280  142.1736 H   0  0  0  0  0  0  0  0  0  0  0  0
   34.1876    0.3050  141.8662 H   0  0  0  0  0  0  0  0  0  0  0  0
   32.9485    1.5328  141.4377 H   0  0  0  0  0  0  0  0  0  0  0  0
   35.6519    3.2433  141.4266 H   0  0  0  0  0  0  0  0  0  0  0  0
   36.8544    0.7364  140.7829 H   0  0  0  0  0  0  0  0  0  0  0  0
   37.3856    3.5410  139.7341 H   0  0  0  0  0  0  0  0  0  0  0  0
   36.1748    2.3672  139.1154 H   0  0  0  0  0  0  0  0  0  0  0  0
   37.9130    0.9320  138.2530 H   0  0  0  0  0  0  0  0  0  0  0  0
   39.1895    1.9267  139.0325 H   0  0  0  0  0  0  0  0  0  0  0  0
   38.9066    2.4230  136.5858 H   0  0  0  0  0  0  0  0  0  0  0  0
   38.6117    3.8491  137.6374 H   0  0  0  0  0  0  0  0  0  0  0  0
   36.3003    2.1794  136.6938 H   0  0  0  0  0  0  0  0  0  0  0  0
   36.6263    6.1673  135.9121 H   0  0  0  0  0  0  0  0  0  0  0  0
   38.0031    5.3344  136.6824 H   0  0  0  0  0  0  0  0  0  0  0  0
   34.5958    3.2781  135.7308 H   0  0  0  0  0  0  0  0  0  0  0  0
   34.7252    5.0253  135.3944 H   0  0  0  0  0  0  0  0  0  0  0  0
   38.3384    3.6857  142.2069 H   0  0  0  0  0  0  0  0  0  0  0  0
   41.0239    2.7923  141.7795 H   0  0  0  0  0  0  0  0  0  0  0  0
   41.6008    4.4935  143.5701 H   0  0  0  0  0  0  0  0  0  0  0  0
   39.8380    4.7886  143.7499 H   0  0  0  0  0  0  0  0  0  0  0  0
   39.7542    5.3854  141.3224 H   0  0  0  0  0  0  0  0  0  0  0  0
   41.5435    5.2361  141.2707 H   0  0  0  0  0  0  0  0  0  0  0  0
   38.9595    2.6891  144.7138 H   0  0  0  0  0  0  0  0  0  0  0  0
   40.9209    1.3415  146.3054 H   0  0  0  0  0  0  0  0  0  0  0  0
   37.8941    1.3112  146.6218 H   0  0  0  0  0  0  0  0  0  0  0  0
   38.9976    2.5799  147.2539 H   0  0  0  0  0  0  0  0  0  0  0  0
   38.7701   -0.3227  148.1195 H   0  0  0  0  0  0  0  0  0  0  0  0
   40.6134    0.1308  149.7190 H   0  0  0  0  0  0  0  0  0  0  0  0
   40.8688    1.7405  148.9641 H   0  0  0  0  0  0  0  0  0  0  0  0
   41.1663    0.2454  148.0138 H   0  0  0  0  0  0  0  0  0  0  0  0
   37.1165    1.2819  149.0155 H   0  0  0  0  0  0  0  0  0  0  0  0
   38.4564    2.3192  149.6116 H   0  0  0  0  0  0  0  0  0  0  0  0
   38.2254    0.6721  150.2903 H   0  0  0  0  0  0  0  0  0  0  0  0
   38.1787    0.1283  144.3106 H   0  0  0  0  0  0  0  0  0  0  0  0
   38.5003   -2.6028  145.0056 H   0  0  0  0  0  0  0  0  0  0  0  0
   37.4343   -3.0868  142.7653 H   0  0  0  0  0  0  0  0  0  0  0  0
   37.4802   -1.3208  142.4397 H   0  0  0  0  0  0  0  0  0  0  0  0
   40.0942   -0.7186  142.3664 H   0  0  0  0  0  0  0  0  0  0  0  0
   41.6510   -2.9431  141.4390 H   0  0  0  0  0  0  0  0  0  0  0  0
   43.1680   -1.0861  140.4976 H   0  0  0  0  0  0  0  0  0  0  0  0
   41.9448    0.0566  141.1494 H   0  0  0  0  0  0  0  0  0  0  0  0
   40.1933   -1.1109  139.8279 H   0  0  0  0  0  0  0  0  0  0  0  0
   41.4594   -2.1796  139.1339 H   0  0  0  0  0  0  0  0  0  0  0  0
   42.3789   -0.3938  143.8745 H   0  0  0  0  0  0  0  0  0  0  0  0
   44.9736   -1.2321  144.5481 H   0  0  0  0  0  0  0  0  0  0  0  0
   42.8318   -0.3140  146.5142 H   0  0  0  0  0  0  0  0  0  0  0  0
   43.8047    0.7799  145.4732 H   0  0  0  0  0  0  0  0  0  0  0  0
   45.8095   -0.5394  146.6733 H   0  0  0  0  0  0  0  0  0  0  0  0
   45.9918    1.2990  148.3116 H   0  0  0  0  0  0  0  0  0  0  0  0
   44.3035    1.7885  147.9420 H   0  0  0  0  0  0  0  0  0  0  0  0
   45.5677    1.8927  146.6702 H   0  0  0  0  0  0  0  0  0  0  0  0
   44.2825   -1.9723  147.9930 H   0  0  0  0  0  0  0  0  0  0  0  0
   43.6258   -0.5063  148.7968 H   0  0  0  0  0  0  0  0  0  0  0  0
   45.3485   -0.9608  149.0259 H   0  0  0  0  0  0  0  0  0  0  0  0
   41.8260   -2.5104  145.7985 H   0  0  0  0  0  0  0  0  0  0  0  0
   43.1214   -4.3179  147.6296 H   0  0  0  0  0  0  0  0  0  0  0  0
   40.9143   -5.4196  147.8336 H   0  0  0  0  0  0  0  0  0  0  0  0
   40.3099   -4.4333  146.4593 H   0  0  0  0  0  0  0  0  0  0  0  0
   39.5317   -3.5143  148.5516 H   0  0  0  0  0  0  0  0  0  0  0  0
   40.6930   -2.3873  147.7720 H   0  0  0  0  0  0  0  0  0  0  0  0
   41.6073   -4.9409  151.5410 H   0  0  0  0  0  0  0  0  0  0  0  0
   41.3797   -5.6699  149.9151 H   0  0  0  0  0  0  0  0  0  0  0  0
   40.0015   -4.8651  150.7395 H   0  0  0  0  0  0  0  0  0  0  0  0
   41.8443   -4.7346  144.3293 H   0  0  0  0  0  0  0  0  0  0  0  0
   42.1804   -7.5615  144.2021 H   0  0  0  0  0  0  0  0  0  0  0  0
   41.9809   -7.2597  141.7532 H   0  0  0  0  0  0  0  0  0  0  0  0
   42.1440   -5.4842  141.9712 H   0  0  0  0  0  0  0  0  0  0  0  0
   40.7278   -6.3474  142.6611 H   0  0  0  0  0  0  0  0  0  0  0  0
   44.4409   -4.9229  143.7467 H   0  0  0  0  0  0  0  0  0  0  0  0
   46.4067   -6.5398  142.3428 H   0  0  0  0  0  0  0  0  0  0  0  0
   46.0630   -4.0277  142.0630 H   0  0  0  0  0  0  0  0  0  0  0  0
   47.7616   -4.5529  142.3193 H   0  0  0  0  0  0  0  0  0  0  0  0
   46.0023   -3.5392  144.3227 H   0  0  0  0  0  0  0  0  0  0  0  0
   45.6132   -6.4485  145.6487 H   0  0  0  0  0  0  0  0  0  0  0  0
   48.2312   -6.1972  146.7854 H   0  0  0  0  0  0  0  0  0  0  0  0
   47.2479   -7.1199  148.8206 H   0  0  0  0  0  0  0  0  0  0  0  0
   45.7900   -7.6214  147.8989 H   0  0  0  0  0  0  0  0  0  0  0  0
   45.3238   -5.1878  147.4829 H   0  0  0  0  0  0  0  0  0  0  0  0
   44.4300   -4.8416  149.7686 H   0  0  0  0  0  0  0  0  0  0  0  0
   45.4778   -6.1708  150.3703 H   0  0  0  0  0  0  0  0  0  0  0  0
   44.1696   -6.5223  149.1906 H   0  0  0  0  0  0  0  0  0  0  0  0
   47.5989   -4.3153  147.8815 H   0  0  0  0  0  0  0  0  0  0  0  0
   47.4815   -4.8010  149.6068 H   0  0  0  0  0  0  0  0  0  0  0  0
   46.3888   -3.5334  148.9542 H   0  0  0  0  0  0  0  0  0  0  0  0
   49.7208   -7.6752  147.4598 H   0  0  0  0  0  0  0  0  0  0  0  0
   49.2086  -10.5322  146.8074 H   0  0  0  0  0  0  0  0  0  0  0  0
   50.5356   -9.7133  144.9840 H   0  0  0  0  0  0  0  0  0  0  0  0
   51.6178  -10.6851  146.0381 H   0  0  0  0  0  0  0  0  0  0  0  0
   52.5451   -8.6676  145.4155 H   0  0  0  0  0  0  0  0  0  0  0  0
   49.9136   -8.5072  149.3293 H   0  0  0  0  0  0  0  0  0  0  0  0
   50.7800  -10.6436  151.0527 H   0  0  0  0  0  0  0  0  0  0  0  0
   53.0351   -9.7592  151.6283 H   0  0  0  0  0  0  0  0  0  0  0  0
   52.8846   -8.5385  150.3191 H   0  0  0  0  0  0  0  0  0  0  0  0
   52.9465  -10.2874  149.9138 H   0  0  0  0  0  0  0  0  0  0  0  0
  1  2  1  0  0  0  0
  1115  1  0  0  0  0
  1116  1  0  0  0  0
  1117  1  0  0  0  0
  2  3  1  0  0  0  0
  2118  1  0  0  0  0
  2119  1  0  0  0  0
  3  4  2  0  0  0  0
  3  5  1  0  0  0  0
  5  6  1  0  0  0  0
  5120  1  0  0  0  0
  6  7  1  0  0  0  0
  6  9  1  0  0  0  0
  6121  1  6  0  0  0
  7  8  2  0  0  0  0
  7 11  1  0  0  0  0
  9 10  1  0  0  0  0
  9122  1  0  0  0  0
  9123  1  0  0  0  0
 10124  1  0  0  0  0
 11 12  1  0  0  0  0
 11125  1  0  0  0  0
 12 13  1  0  0  0  0
 12 15  1  0  0  0  0
 12126  1  1  0  0  0
 13 14  2  0  0  0  0
 13 16  1  0  0  0  0
 15127  1  0  0  0  0
 15128  1  0  0  0  0
 15129  1  0  0  0  0
 16 17  1  0  0  0  0
 16130  1  0  0  0  0
 17 18  1  0  0  0  0
 17 20  1  0  0  0  0
 17131  1  1  0  0  0
 18 19  2  0  0  0  0
 18 23  1  0  0  0  0
 20 21  1  0  0  0  0
 20 22  1  0  0  0  0
 20132  1  1  0  0  0
 21133  1  0  0  0  0
 22134  1  0  0  0  0
 22135  1  0  0  0  0
 22136  1  0  0  0  0
 23 24  1  0  0  0  0
 23137  1  0  0  0  0
 24 25  1  0  0  0  0
 24 27  1  0  0  0  0
 24138  1  6  0  0  0
 25 26  2  0  0  0  0
 25 34  1  0  0  0  0
 27 28  1  0  0  0  0
 27139  1  0  0  0  0
 27140  1  0  0  0  0
 28 29  1  0  0  0  0
 28141  1  0  0  0  0
 28142  1  0  0  0  0
 29 30  1  0  0  0  0
 29143  1  0  0  0  0
 29144  1  0  0  0  0
 30 31  1  0  0  0  0
 30145  1  0  0  0  0
 31 32  1  0  0  0  0
 31 33  1  0  0  0  0
 32146  1  0  0  0  0
 32147  1  0  0  0  0
 33148  1  0  0  0  0
 33149  1  0  0  0  0
 34 35  1  0  0  0  0
 34150  1  0  0  0  0
 35 36  1  0  0  0  0
 35 38  1  0  0  0  0
 35151  1  6  0  0  0
 36 37  2  0  0  0  0
 36 43  1  0  0  0  0
 38 39  1  0  0  0  0
 38152  1  0  0  0  0
 38153  1  0  0  0  0
 39 40  1  0  0  0  0
 39154  1  0  0  0  0
 39155  1  0  0  0  0
 40 41  1  0  0  0  0
 40 42  2  0  0  0  0
 43 44  1  0  0  0  0
 43156  1  0  0  0  0
 44 45  1  0  0  0  0
 44 47  1  0  0  0  0
 44157  1  1  0  0  0
 45 46  2  0  0  0  0
 45 51  1  0  0  0  0
 47 48  1  0  0  0  0
 47158  1  0  0  0  0
 47159  1  0  0  0  0
 48 49  1  0  0  0  0
 48 50  1  0  0  0  0
 48160  1  0  0  0  0
 49161  1  0  0  0  0
 49162  1  0  0  0  0
 49163  1  0  0  0  0
 50164  1  0  0  0  0
 50165  1  0  0  0  0
 50166  1  0  0  0  0
 51 52  1  0  0  0  0
 51167  1  0  0  0  0
 52 53  1  0  0  0  0
 52 55  1  0  0  0  0
 52168  1  1  0  0  0
 53 54  2  0  0  0  0
 53 59  1  0  0  0  0
 55 56  1  0  0  0  0
 55169  1  0  0  0  0
 55170  1  0  0  0  0
 56 57  1  0  0  0  0
 56 58  2  0  0  0  0
 59 60  1  0  0  0  0
 59171  1  0  0  0  0
 60 61  1  0  0  0  0
 60 63  1  0  0  0  0
 60172  1  6  0  0  0
 61 62  2  0  0  0  0
 61 68  1  0  0  0  0
 63 64  1  0  0  0  0
 63173  1  0  0  0  0
 63174  1  0  0  0  0
 64 65  1  0  0  0  0
 64175  1  0  0  0  0
 64176  1  0  0  0  0
 65 66  1  0  0  0  0
 65 67  2  0  0  0  0
 68 69  1  0  0  0  0
 68177  1  0  0  0  0
 69 70  1  0  0  0  0
 69 72  1  0  0  0  0
 69178  1  6  0  0  0
 70 71  2  0  0  0  0
 70 76  1  0  0  0  0
 72 73  1  0  0  0  0
 72179  1  0  0  0  0
 72180  1  0  0  0  0
 73 74  1  0  0  0  0
 73 75  1  0  0  0  0
 73181  1  0  0  0  0
 74182  1  0  0  0  0
 74183  1  0  0  0  0
 74184  1  0  0  0  0
 75185  1  0  0  0  0
 75186  1  0  0  0  0
 75187  1  0  0  0  0
 76 77  1  0  0  0  0
 76188  1  0  0  0  0
 77 78  1  0  0  0  0
 77 80  1  0  0  0  0
 77189  1  1  0  0  0
 78 79  2  0  0  0  0
 78 84  1  0  0  0  0
 80 81  1  0  0  0  0
 80190  1  0  0  0  0
 80191  1  0  0  0  0
 81 82  1  0  0  0  0
 81192  1  0  0  0  0
 81193  1  0  0  0  0
 82 83  1  0  0  0  0
 83194  1  0  0  0  0
 83195  1  0  0  0  0
 83196  1  0  0  0  0
 84 85  1  0  0  0  0
 84197  1  0  0  0  0
 85 86  1  0  0  0  0
 85 88  1  0  0  0  0
 85198  1  1  0  0  0
 86 87  2  0  0  0  0
 86 89  1  0  0  0  0
 88199  1  0  0  0  0
 88200  1  0  0  0  0
 88201  1  0  0  0  0
 89 90  1  0  0  0  0
 89202  1  0  0  0  0
 90 91  1  0  0  0  0
 90 93  1  0  0  0  0
 90203  1  6  0  0  0
 91 92  2  0  0  0  0
 91 95  1  0  0  0  0
 93 94  1  0  0  0  0
 93204  1  0  0  0  0
 93205  1  0  0  0  0
 94206  1  0  0  0  0
 95 96  1  0  0  0  0
 95207  1  0  0  0  0
 96 97  1  0  0  0  0
 96 99  1  0  0  0  0
 96208  1  1  0  0  0
 97 98  2  0  0  0  0
 97103  1  0  0  0  0
 99100  1  0  0  0  0
 99209  1  0  0  0  0
 99210  1  0  0  0  0
100101  1  0  0  0  0
100102  1  0  0  0  0
100211  1  0  0  0  0
101212  1  0  0  0  0
101213  1  0  0  0  0
101214  1  0  0  0  0
102215  1  0  0  0  0
102216  1  0  0  0  0
102217  1  0  0  0  0
103104  1  0  0  0  0
103218  1  0  0  0  0
104105  1  0  0  0  0
104107  1  0  0  0  0
104219  1  6  0  0  0
105106  2  0  0  0  0
105109  1  0  0  0  0
107108  1  0  0  0  0
107220  1  0  0  0  0
107221  1  0  0  0  0
108222  1  0  0  0  0
109110  1  0  0  0  0
109223  1  0  0  0  0
110111  1  0  0  0  0
110113  1  0  0  0  0
110224  1  1  0  0  0
111112  1  0  0  0  0
111114  2  0  0  0  0
113225  1  0  0  0  0
113226  1  0  0  0  0
113227  1  0  0  0  0
M  CHG  5   1   1  41  -1  57  -1  66  -1 112  -1
M  END
