4xjs_ligand
 OpenBabel08222323353D

 39 41  0  0  0  0  0  0  0  0999 V2000
   -6.5860  -21.3270    9.7000 C   0  0  0  0  0  0  0  0  0  0  0  0
   -6.6900  -20.6380   11.0390 C   0  0  0  0  0  0  0  0  0  0  0  0
   -6.2030  -21.2590   12.1890 C   0  0  0  0  0  0  0  0  0  0  0  0
   -6.3150  -20.6100   13.4310 C   0  0  0  0  0  0  0  0  0  0  0  0
   -5.8060  -21.2160   14.6250 N   0  0  0  0  0  0  0  0  0  0  0  0
   -5.5150  -22.6670   14.7060 C   0  0  0  0  0  0  0  0  0  0  0  0
   -5.2720  -23.1270   16.1370 C   0  0  0  0  0  0  0  0  0  0  0  0
   -6.2330  -23.9030   16.8120 C   0  0  0  0  0  0  0  0  0  0  0  0
   -7.7380  -24.3580   16.0700 Cl  0  0  0  0  0  0  0  0  0  0  0  0
   -6.0150  -24.3210   18.1260 C   0  0  0  0  0  0  0  0  0  0  0  0
   -4.8390  -23.9800   18.7980 C   0  0  0  0  0  0  0  0  0  0  0  0
   -3.8710  -23.2090   18.1360 C   0  0  0  0  0  0  0  0  0  0  0  0
   -2.4000  -22.7490   18.9530 Cl  0  0  0  0  0  0  0  0  0  0  0  0
   -4.0780  -22.7820   16.8100 C   0  0  0  0  0  0  0  0  0  0  0  0
   -2.8270  -21.8070   16.0590 Cl  0  0  0  0  0  0  0  0  0  0  0  0
   -6.9220  -19.3420   13.4570 C   0  0  0  0  0  0  0  0  0  0  0  0
   -7.0450  -18.6520   14.6680 C   0  0  0  0  0  0  0  0  0  0  0  0
   -7.6370  -17.3880   14.7190 C   0  0  0  0  0  0  0  0  0  0  0  0
   -7.7370  -16.7550   15.9220 F   0  0  0  0  0  0  0  0  0  0  0  0
   -8.1210  -16.7990   13.5440 C   0  0  0  0  0  0  0  0  0  0  0  0
   -8.0280  -17.4500   12.2990 C   0  0  0  0  0  0  0  0  0  0  0  0
   -8.5640  -16.7270   11.0770 C   0  0  0  0  0  0  0  0  0  0  0  0
   -9.2020  -15.5690   11.2000 N   0  0  0  0  0  0  0  0  0  0  0  0
   -8.4160  -17.1310    9.9090 O   0  0  0  0  0  0  0  0  0  0  0  0
   -7.4090  -18.7500   12.2680 C   0  0  0  0  0  0  0  0  0  0  0  0
   -7.2610  -19.4410   11.1190 N   0  0  0  0  0  0  0  0  0  0  0  0
   -6.0886  -22.3000    9.8260 H   0  0  0  0  0  0  0  0  0  0  0  0
   -5.9994  -20.7020    9.0106 H   0  0  0  0  0  0  0  0  0  0  0  0
   -7.5941  -21.4812    9.2877 H   0  0  0  0  0  0  0  0  0  0  0  0
   -5.7404  -22.2373   12.1254 H   0  0  0  0  0  0  0  0  0  0  0  0
   -5.6372  -20.6257   15.4520 H   0  0  0  0  0  0  0  0  0  0  0  0
   -4.6173  -22.8820   14.1078 H   0  0  0  0  0  0  0  0  0  0  0  0
   -6.3708  -23.2232   14.2959 H   0  0  0  0  0  0  0  0  0  0  0  0
   -6.7669  -24.9170   18.6305 H   0  0  0  0  0  0  0  0  0  0  0  0
   -4.6759  -24.3069   19.8186 H   0  0  0  0  0  0  0  0  0  0  0  0
   -6.6752  -19.1054   15.5806 H   0  0  0  0  0  0  0  0  0  0  0  0
   -8.5785  -15.8176   13.5944 H   0  0  0  0  0  0  0  0  0  0  0  0
   -9.5509  -15.1016   10.3877 H   0  0  0  0  0  0  0  0  0  0  0  0
   -9.3336  -15.1643   12.1049 H   0  0  0  0  0  0  0  0  0  0  0  0
  1  2  1  0  0  0  0
  1 27  1  0  0  0  0
  1 28  1  0  0  0  0
  1 29  1  0  0  0  0
  2  3  2  0  0  0  0
  2 26  1  0  0  0  0
  3  4  1  0  0  0  0
  3 30  1  0  0  0  0
  4  5  1  0  0  0  0
  4 16  2  0  0  0  0
  5  6  1  0  0  0  0
  5 31  1  0  0  0  0
  6  7  1  0  0  0  0
  6 32  1  0  0  0  0
  6 33  1  0  0  0  0
  7  8  2  0  0  0  0
  7 14  1  0  0  0  0
  8  9  1  0  0  0  0
  8 10  1  0  0  0  0
 10 11  2  0  0  0  0
 10 34  1  0  0  0  0
 11 12  1  0  0  0  0
 11 35  1  0  0  0  0
 12 13  1  0  0  0  0
 12 14  2  0  0  0  0
 14 15  1  0  0  0  0
 16 17  1  0  0  0  0
 16 25  1  0  0  0  0
 17 18  2  0  0  0  0
 17 36  1  0  0  0  0
 18 19  1  0  0  0  0
 18 20  1  0  0  0  0
 20 21  2  0  0  0  0
 20 37  1  0  0  0  0
 21 22  1  0  0  0  0
 21 25  1  0  0  0  0
 22 23  1  0  0  0  0
 22 24  2  0  0  0  0
 23 38  1  0  0  0  0
 23 39  1  0  0  0  0
 25 26  2  0  0  0  0
M  END
