4xjt_ligand
 OpenBabel08222323353D

 45 47  0  0  0  0  0  0  0  0999 V2000
   -2.3530  -21.7370   16.0170 C   0  0  0  0  0  0  0  0  0  0  0  0
   -5.0770  -23.7560   18.5380 C   0  0  0  0  0  0  0  0  0  0  0  0
   -6.8870  -23.7180   16.8830 C   0  0  0  0  0  0  0  0  0  0  0  0
   -7.1550  -18.6790   14.9210 C   0  0  0  0  0  0  0  0  0  0  0  0
   -8.0110  -17.5580   12.5630 C   0  0  0  0  0  0  0  0  0  0  0  0
   -8.5070  -16.8660   11.3550 C   0  0  0  0  0  0  0  0  0  0  0  0
   -7.3430  -18.7810   12.5050 C   0  0  0  0  0  0  0  0  0  0  0  0
   -6.2030  -21.2470   10.0830 C   0  0  0  0  0  0  0  0  0  0  0  0
   -6.4560  -20.5710   11.3850 C   0  0  0  0  0  0  0  0  0  0  0  0
   -6.0190  -21.1570   12.5530 C   0  0  0  0  0  0  0  0  0  0  0  0
   -6.2490  -20.5340   13.7630 C   0  0  0  0  0  0  0  0  0  0  0  0
   -5.8390  -21.0580   15.0280 N   0  0  0  0  0  0  0  0  0  0  0  0
   -5.0880  -22.3170   15.0280 C   0  0  0  0  0  0  0  0  0  0  0  0
   -4.6330  -22.7210   16.4090 C   0  0  0  0  0  0  0  0  0  0  0  0
   -3.3480  -22.4430   16.8590 C   0  0  0  0  0  0  0  0  0  0  0  0
   -2.9420  -22.8170   18.1260 C   0  0  0  0  0  0  0  0  0  0  0  0
   -3.8010  -23.4800   18.9780 C   0  0  0  0  0  0  0  0  0  0  0  0
   -5.4920  -23.3850   17.2740 C   0  0  0  0  0  0  0  0  0  0  0  0
   -6.9210  -19.3260   13.7200 C   0  0  0  0  0  0  0  0  0  0  0  0
   -7.8150  -17.4750   14.9430 C   0  0  0  0  0  0  0  0  0  0  0  0
   -8.2430  -16.9140   13.7590 C   0  0  0  0  0  0  0  0  0  0  0  0
   -8.4090  -17.3330   10.2340 O   0  0  0  0  0  0  0  0  0  0  0  0
   -9.0780  -15.6540   11.6140 N   0  0  0  0  0  0  0  0  0  0  0  0
   -7.1100  -19.4080   11.3400 N   0  0  0  0  0  0  0  0  0  0  0  0
   -1.4117  -21.6277   16.5755 H   0  0  0  0  0  0  0  0  0  0  0  0
   -2.7386  -20.7420   15.7501 H   0  0  0  0  0  0  0  0  0  0  0  0
   -2.1703  -22.3174   15.1006 H   0  0  0  0  0  0  0  0  0  0  0  0
   -5.7670  -24.2731   19.1950 H   0  0  0  0  0  0  0  0  0  0  0  0
   -7.3858  -24.2396   17.7131 H   0  0  0  0  0  0  0  0  0  0  0  0
   -6.8739  -24.3687   15.9962 H   0  0  0  0  0  0  0  0  0  0  0  0
   -7.4336  -22.7922   16.6505 H   0  0  0  0  0  0  0  0  0  0  0  0
   -6.8156  -19.1250   15.8489 H   0  0  0  0  0  0  0  0  0  0  0  0
   -5.6606  -22.1879   10.2577 H   0  0  0  0  0  0  0  0  0  0  0  0
   -5.5993  -20.5898    9.4398 H   0  0  0  0  0  0  0  0  0  0  0  0
   -7.1620  -21.4628    9.5894 H   0  0  0  0  0  0  0  0  0  0  0  0
   -5.4955  -22.1057   12.5216 H   0  0  0  0  0  0  0  0  0  0  0  0
   -6.0628  -20.5694   15.9067 H   0  0  0  0  0  0  0  0  0  0  0  0
   -4.2027  -22.1992   14.3858 H   0  0  0  0  0  0  0  0  0  0  0  0
   -5.7319  -23.1114   14.6228 H   0  0  0  0  0  0  0  0  0  0  0  0
   -1.9351  -22.5863   18.4547 H   0  0  0  0  0  0  0  0  0  0  0  0
   -3.4796  -23.7767   19.9699 H   0  0  0  0  0  0  0  0  0  0  0  0
   -7.9980  -16.9696   15.8844 H   0  0  0  0  0  0  0  0  0  0  0  0
   -8.7637  -15.9633   13.7687 H   0  0  0  0  0  0  0  0  0  0  0  0
   -9.4458  -15.1041   10.8641 H   0  0  0  0  0  0  0  0  0  0  0  0
   -9.1286  -15.3157   12.5537 H   0  0  0  0  0  0  0  0  0  0  0  0
  1 25  1  0  0  0  0
  1 26  1  0  0  0  0
  1 27  1  0  0  0  0
  2 17  2  0  0  0  0
  2 28  1  0  0  0  0
  3 29  1  0  0  0  0
  3 30  1  0  0  0  0
  3 31  1  0  0  0  0
  4 20  1  0  0  0  0
  4 32  1  0  0  0  0
  5  6  1  0  0  0  0
  5 21  1  0  0  0  0
  6 22  2  0  0  0  0
  6 23  1  0  0  0  0
  7  5  2  0  0  0  0
  7 24  1  0  0  0  0
  8 33  1  0  0  0  0
  8 34  1  0  0  0  0
  8 35  1  0  0  0  0
  9  8  1  0  0  0  0
  9 24  2  0  0  0  0
 10  9  1  0  0  0  0
 10 36  1  0  0  0  0
 11 10  2  0  0  0  0
 11 19  1  0  0  0  0
 12 11  1  0  0  0  0
 12 37  1  0  0  0  0
 13 12  1  0  0  0  0
 13 38  1  0  0  0  0
 13 39  1  0  0  0  0
 14 13  1  0  0  0  0
 14 15  1  0  0  0  0
 14 18  2  0  0  0  0
 15  1  1  0  0  0  0
 15 16  2  0  0  0  0
 16 17  1  0  0  0  0
 16 40  1  0  0  0  0
 17 41  1  0  0  0  0
 18  2  1  0  0  0  0
 18  3  1  0  0  0  0
 19  4  2  0  0  0  0
 19  7  1  0  0  0  0
 20 21  2  0  0  0  0
 20 42  1  0  0  0  0
 21 43  1  0  0  0  0
 23 44  1  0  0  0  0
 23 45  1  0  0  0  0
M  END
