4xm8_ligand
 OpenBabel08222323353D

 53 53  0  0  1  0  0  0  0  0999 V2000
   11.0890   19.1830   27.4260 C   0  0  2  0  0  0  0  0  0  0  0  0
   11.9960   19.2410   28.6280 C   0  0  0  0  0  0  0  0  0  0  0  0
   13.8480   20.2620   29.7040 O   0  0  0  0  0  0  0  0  0  0  0  0
    9.6840   19.5490   27.6710 N   0  0  0  0  0  0  0  0  0  0  0  0
    9.0700   18.9590   28.8660 C   0  0  0  0  0  0  0  0  0  0  0  0
    8.3190   20.0310   29.6580 C   0  0  0  0  0  0  0  0  0  0  0  0
    9.2740   21.0090   30.3280 C   0  0  0  0  0  0  0  0  0  0  0  0
    7.3720   19.4220   30.6870 C   0  0  0  0  0  0  0  0  0  0  0  0
    8.7690   21.9670   27.0900 C   0  0  0  0  0  0  0  0  0  0  0  0
    7.4920   22.5120   27.1490 C   0  0  0  0  0  0  0  0  0  0  0  0
    7.3120   23.8460   27.4880 C   0  0  0  0  0  0  0  0  0  0  0  0
    9.8770   22.7600   27.3640 C   0  0  0  0  0  0  0  0  0  0  0  0
    5.9110   24.4130   27.5430 C   0  0  0  0  0  0  0  0  0  0  0  0
    4.4800   26.0720   26.6770 C   0  0  0  0  0  0  0  0  0  0  0  0
   12.5540   17.3520   26.5240 C   0  0  0  0  0  0  0  0  0  0  0  0
   11.9210   18.2160   29.6780 O   0  0  0  0  0  0  0  0  0  0  0  0
   12.9200   20.2400   28.7170 N   0  0  0  0  0  0  0  0  0  0  0  0
    8.9170   20.4320   26.6850 S   0  0  0  0  0  0  0  0  0  0  0  0
    7.5970   19.8970   26.5110 O   0  0  0  0  0  0  0  0  0  0  0  0
    9.5890   20.4010   25.4180 O   0  0  0  0  0  0  0  0  0  0  0  0
    8.4190   24.6410   27.7600 C   0  0  0  0  0  0  0  0  0  0  0  0
    9.7000   24.0990   27.7010 C   0  0  0  0  0  0  0  0  0  0  0  0
    5.8360   25.6820   26.8990 O   0  0  0  0  0  0  0  0  0  0  0  0
   11.1360   17.7260   26.9480 C   0  0  0  0  0  0  0  0  0  0  0  0
   10.1450   17.3530   25.8470 C   0  0  0  0  0  0  0  0  0  0  0  0
   11.4878   19.8515   26.6488 H   0  0  0  0  0  0  0  0  0  0  0  0
   14.3996   21.0286   29.6014 H   0  0  0  0  0  0  0  0  0  0  0  0
    9.8555   18.5223   29.5002 H   0  0  0  0  0  0  0  0  0  0  0  0
    8.3649   18.1717   28.5612 H   0  0  0  0  0  0  0  0  0  0  0  0
    7.7087   20.6000   28.9412 H   0  0  0  0  0  0  0  0  0  0  0  0
    8.6968   21.7614   30.8855 H   0  0  0  0  0  0  0  0  0  0  0  0
    9.8842   21.5091   29.5615 H   0  0  0  0  0  0  0  0  0  0  0  0
    9.9310   20.4633   31.0213 H   0  0  0  0  0  0  0  0  0  0  0  0
    6.6899   18.7189   30.1866 H   0  0  0  0  0  0  0  0  0  0  0  0
    6.7877   20.2215   31.1660 H   0  0  0  0  0  0  0  0  0  0  0  0
    7.9553   18.8864   31.4504 H   0  0  0  0  0  0  0  0  0  0  0  0
    6.6309   21.8914   26.9289 H   0  0  0  0  0  0  0  0  0  0  0  0
   10.8742   22.3378   27.3155 H   0  0  0  0  0  0  0  0  0  0  0  0
    5.6129   24.5281   28.5956 H   0  0  0  0  0  0  0  0  0  0  0  0
    5.2234   23.7163   27.0412 H   0  0  0  0  0  0  0  0  0  0  0  0
    4.4573   27.0530   26.1798 H   0  0  0  0  0  0  0  0  0  0  0  0
    3.9547   26.1375   27.6412 H   0  0  0  0  0  0  0  0  0  0  0  0
    3.9837   25.3260   26.0389 H   0  0  0  0  0  0  0  0  0  0  0  0
   12.5712   16.3059   26.1843 H   0  0  0  0  0  0  0  0  0  0  0  0
   13.2358   17.4712   27.3789 H   0  0  0  0  0  0  0  0  0  0  0  0
   12.8767   18.0093   25.7032 H   0  0  0  0  0  0  0  0  0  0  0  0
   12.9125   20.9738   28.0377 H   0  0  0  0  0  0  0  0  0  0  0  0
    8.2848   25.6851   28.0186 H   0  0  0  0  0  0  0  0  0  0  0  0
   10.5611   24.7207   27.9179 H   0  0  0  0  0  0  0  0  0  0  0  0
   10.8780   17.1067   27.8197 H   0  0  0  0  0  0  0  0  0  0  0  0
    9.1271   17.6263   26.1619 H   0  0  0  0  0  0  0  0  0  0  0  0
   10.1931   16.2698   25.6619 H   0  0  0  0  0  0  0  0  0  0  0  0
   10.4011   17.8944   24.9243 H   0  0  0  0  0  0  0  0  0  0  0  0
  1  2  1  0  0  0  0
  1 24  1  0  0  0  0
  1 26  1  6  0  0  0
  2 16  2  0  0  0  0
  2 17  1  0  0  0  0
  3 27  1  0  0  0  0
  4  1  1  0  0  0  0
  4  5  1  0  0  0  0
  5  6  1  0  0  0  0
  5 28  1  0  0  0  0
  5 29  1  0  0  0  0
  6  7  1  0  0  0  0
  6  8  1  0  0  0  0
  6 30  1  0  0  0  0
  7 31  1  0  0  0  0
  7 32  1  0  0  0  0
  7 33  1  0  0  0  0
  8 34  1  0  0  0  0
  8 35  1  0  0  0  0
  8 36  1  0  0  0  0
  9 10  2  0  0  0  0
  9 12  1  0  0  0  0
  9 18  1  0  0  0  0
 10 11  1  0  0  0  0
 10 37  1  0  0  0  0
 11 13  1  0  0  0  0
 11 21  2  0  0  0  0
 12 22  2  0  0  0  0
 12 38  1  0  0  0  0
 13 23  1  0  0  0  0
 13 39  1  0  0  0  0
 13 40  1  0  0  0  0
 14 41  1  0  0  0  0
 14 42  1  0  0  0  0
 14 43  1  0  0  0  0
 15 44  1  0  0  0  0
 15 45  1  0  0  0  0
 15 46  1  0  0  0  0
 17  3  1  0  0  0  0
 17 47  1  0  0  0  0
 18  4  1  0  0  0  0
 18 19  2  0  0  0  0
 18 20  2  0  0  0  0
 21 22  1  0  0  0  0
 21 48  1  0  0  0  0
 22 49  1  0  0  0  0
 23 14  1  0  0  0  0
 24 15  1  0  0  0  0
 24 25  1  0  0  0  0
 24 50  1  0  0  0  0
 25 51  1  0  0  0  0
 25 52  1  0  0  0  0
 25 53  1  0  0  0  0
M  END
