4xnv_ligand
 OpenBabel08222323353D

 54 56  0  0  0  0  0  0  0  0999 V2000
  -22.5160   34.0540   10.7980 F   0  0  0  0  0  0  0  0  0  0  0  0
  -22.7660   35.3220   10.3670 C   0  0  0  0  0  0  0  0  0  0  0  0
  -23.5650   35.8930   11.2610 F   0  0  0  0  0  0  0  0  0  0  0  0
  -23.4280   35.2650    9.1090 F   0  0  0  0  0  0  0  0  0  0  0  0
  -21.5360   36.1000   10.2850 O   0  0  0  0  0  0  0  0  0  0  0  0
  -20.5940   35.6690    9.3840 C   0  0  0  0  0  0  0  0  0  0  0  0
  -19.5640   34.8070    9.7910 C   0  0  0  0  0  0  0  0  0  0  0  0
  -18.6000   34.3800    8.8660 C   0  0  0  0  0  0  0  0  0  0  0  0
  -20.6230   36.1300    8.0580 C   0  0  0  0  0  0  0  0  0  0  0  0
  -19.6600   35.6910    7.1410 C   0  0  0  0  0  0  0  0  0  0  0  0
  -18.6270   34.8120    7.5280 C   0  0  0  0  0  0  0  0  0  0  0  0
  -17.6330   34.3700    6.7110 N   0  0  0  0  0  0  0  0  0  0  0  0
  -17.3440   34.8680    5.4730 C   0  0  0  0  0  0  0  0  0  0  0  0
  -18.0370   35.7350    4.9310 O   0  0  0  0  0  0  0  0  0  0  0  0
  -16.3060   34.2680    4.8190 N   0  0  0  0  0  0  0  0  0  0  0  0
  -15.8080   34.7010    3.6250 C   0  0  0  0  0  0  0  0  0  0  0  0
  -16.5500   35.3320    2.6060 C   0  0  0  0  0  0  0  0  0  0  0  0
  -15.9280   35.7680    1.4300 C   0  0  0  0  0  0  0  0  0  0  0  0
  -14.5550   35.5680    1.2670 C   0  0  0  0  0  0  0  0  0  0  0  0
  -13.8230   34.9420    2.3020 N   0  0  0  0  0  0  0  0  0  0  0  0
  -14.4310   34.5030    3.4320 C   0  0  0  0  0  0  0  0  0  0  0  0
  -13.7630   33.8670    4.4600 O   0  0  0  0  0  0  0  0  0  0  0  0
  -12.5410   33.2550    4.2600 C   0  0  0  0  0  0  0  0  0  0  0  0
  -12.3390   32.3740    3.1820 C   0  0  0  0  0  0  0  0  0  0  0  0
  -11.1010   31.7660    2.9770 C   0  0  0  0  0  0  0  0  0  0  0  0
  -10.0710   31.9740    3.8900 C   0  0  0  0  0  0  0  0  0  0  0  0
  -10.2820   32.8140    4.9860 C   0  0  0  0  0  0  0  0  0  0  0  0
  -11.5080   33.4680    5.2240 C   0  0  0  0  0  0  0  0  0  0  0  0
  -11.6170   34.3330    6.3890 C   0  0  0  0  0  0  0  0  0  0  0  0
  -12.7190   33.8630    7.3560 C   0  0  0  0  0  0  0  0  0  0  0  0
  -10.3040   34.3800    7.2020 C   0  0  0  0  0  0  0  0  0  0  0  0
  -11.9180   35.7830    5.9790 C   0  0  0  0  0  0  0  0  0  0  0  0
  -19.5135   34.4711   10.8204 H   0  0  0  0  0  0  0  0  0  0  0  0
  -17.8177   33.7028    9.1893 H   0  0  0  0  0  0  0  0  0  0  0  0
  -21.3918   36.8266    7.7438 H   0  0  0  0  0  0  0  0  0  0  0  0
  -19.7094   36.0334    6.1137 H   0  0  0  0  0  0  0  0  0  0  0  0
  -17.0663   33.6170    7.0454 H   0  0  0  0  0  0  0  0  0  0  0  0
  -15.8863   33.4639    5.2401 H   0  0  0  0  0  0  0  0  0  0  0  0
  -17.6159   35.4816    2.7346 H   0  0  0  0  0  0  0  0  0  0  0  0
  -16.5060   36.2560    0.6536 H   0  0  0  0  0  0  0  0  0  0  0  0
  -14.0574   35.8886    0.3589 H   0  0  0  0  0  0  0  0  0  0  0  0
  -13.1566   32.1650    2.5017 H   0  0  0  0  0  0  0  0  0  0  0  0
  -10.9414   31.1343    2.1107 H   0  0  0  0  0  0  0  0  0  0  0  0
   -9.1122   31.4877    3.7515 H   0  0  0  0  0  0  0  0  0  0  0  0
   -9.4674   32.9698    5.6840 H   0  0  0  0  0  0  0  0  0  0  0  0
  -12.7649   34.5442    8.2185 H   0  0  0  0  0  0  0  0  0  0  0  0
  -12.4912   32.8449    7.7046 H   0  0  0  0  0  0  0  0  0  0  0  0
  -13.6882   33.8642    6.8359 H   0  0  0  0  0  0  0  0  0  0  0  0
   -9.4816   34.7122    6.5514 H   0  0  0  0  0  0  0  0  0  0  0  0
  -10.0792   33.3771    7.5939 H   0  0  0  0  0  0  0  0  0  0  0  0
  -10.4163   35.0842    8.0395 H   0  0  0  0  0  0  0  0  0  0  0  0
  -12.8485   35.8127    5.3932 H   0  0  0  0  0  0  0  0  0  0  0  0
  -11.0886   36.1715    5.3697 H   0  0  0  0  0  0  0  0  0  0  0  0
  -12.0324   36.4028    6.8805 H   0  0  0  0  0  0  0  0  0  0  0  0
  1  2  1  0  0  0  0
  2  3  1  0  0  0  0
  2  4  1  0  0  0  0
  2  5  1  0  0  0  0
  5  6  1  0  0  0  0
  6  7  2  0  0  0  0
  6  9  1  0  0  0  0
  7  8  1  0  0  0  0
  7 33  1  0  0  0  0
  8 11  2  0  0  0  0
  8 34  1  0  0  0  0
  9 10  2  0  0  0  0
  9 35  1  0  0  0  0
 10 11  1  0  0  0  0
 10 36  1  0  0  0  0
 11 12  1  0  0  0  0
 12 13  1  0  0  0  0
 12 37  1  0  0  0  0
 13 14  2  0  0  0  0
 13 15  1  0  0  0  0
 15 16  1  0  0  0  0
 15 38  1  0  0  0  0
 16 17  2  0  0  0  0
 16 21  1  0  0  0  0
 17 18  1  0  0  0  0
 17 39  1  0  0  0  0
 18 19  2  0  0  0  0
 18 40  1  0  0  0  0
 19 20  1  0  0  0  0
 19 41  1  0  0  0  0
 20 21  2  0  0  0  0
 21 22  1  0  0  0  0
 22 23  1  0  0  0  0
 23 24  2  0  0  0  0
 23 28  1  0  0  0  0
 24 25  1  0  0  0  0
 24 42  1  0  0  0  0
 25 26  2  0  0  0  0
 25 43  1  0  0  0  0
 26 27  1  0  0  0  0
 26 44  1  0  0  0  0
 27 28  2  0  0  0  0
 27 45  1  0  0  0  0
 28 29  1  0  0  0  0
 29 30  1  0  0  0  0
 29 31  1  0  0  0  0
 29 32  1  0  0  0  0
 30 46  1  0  0  0  0
 30 47  1  0  0  0  0
 30 48  1  0  0  0  0
 31 49  1  0  0  0  0
 31 50  1  0  0  0  0
 31 51  1  0  0  0  0
 32 52  1  0  0  0  0
 32 53  1  0  0  0  0
 32 54  1  0  0  0  0
M  END
