4xqa_ligand
 OpenBabel08222323353D

161166  0  0  1  0  0  0  0  0999 V2000
   -0.4660    1.6570    4.6730 O   0  0  0  0  0  0  0  0  0  0  0  0
   -1.3770    1.6470    3.5640 C   0  0  0  0  0  0  0  0  0  0  0  0
   -0.6130    1.8790    2.2670 C   0  0  1  0  0  0  0  0  0  0  0  0
    0.4100    0.8910    2.0930 O   0  0  0  0  0  0  0  0  0  0  0  0
   -1.5560    1.9120    1.0610 C   0  0  1  0  0  0  0  0  0  0  0  0
   -2.3740    3.0840    1.1810 O   0  0  0  0  0  0  0  0  0  0  0  0
   -0.6130    2.0420   -0.1290 C   0  0  2  0  0  0  0  0  0  0  0  0
    0.1460    3.2120    0.0690 O   0  0  0  0  0  0  0  0  0  0  0  0
   -1.4130    2.1460   -1.4440 C   0  0  2  0  0  0  0  0  0  0  0  0
   -2.2630    0.9350   -1.5850 N   0  0  0  0  0  0  0  0  0  0  0  0
   -3.5630    0.9590   -1.8770 C   0  0  0  0  0  0  0  0  0  0  0  0
   -4.2510    1.9670   -1.9910 O   0  0  0  0  0  0  0  0  0  0  0  0
   -4.2230   -0.4180   -1.9690 C   0  0  0  0  0  0  0  0  0  0  0  0
   -0.4110    2.2840   -2.6170 C   0  0  1  0  0  0  0  0  0  0  0  0
   -1.1060    2.5110   -3.8790 O   0  0  0  0  0  0  0  0  0  0  0  0
    0.3540    3.5480   -2.3150 C   0  0  0  0  0  0  0  0  0  0  0  0
    1.0690    3.4060   -0.9670 C   0  0  2  0  0  0  0  0  0  0  0  0
    2.1750    2.2690   -0.8910 C   0  0  0  0  0  0  0  0  0  0  0  0
    2.2700    1.5370    0.1410 O   0  5  0  0  0  0  0  0  0  0  0  0
    3.0090    2.2070   -1.8210 O   0  0  0  0  0  0  0  0  0  0  0  0
    1.7630    4.6130   -0.7110 O   0  0  0  0  0  0  0  0  0  0  0  0
    2.4180    4.6880    0.5390 C   0  0  0  0  0  0  0  0  0  0  0  0
    3.0630    6.0840    0.5730 C   0  0  0  0  0  0  0  0  0  0  0  0
    2.3450    7.2360    0.2260 C   0  0  0  0  0  0  0  0  0  0  0  0
    3.8750    6.4850    1.6760 N   0  0  0  0  0  0  0  0  0  0  0  0
    3.6090    7.7050    1.8970 N   0  0  0  0  0  0  0  0  0  0  0  0
    2.7210    8.1810    1.0960 N   0  0  0  0  0  0  0  0  0  0  0  0
    2.2040    9.6260    1.1250 C   0  0  0  0  0  0  0  0  0  0  0  0
    3.2980   10.5560    0.5950 C   0  0  0  0  0  0  0  0  0  0  0  0
    3.7170   10.2220   -0.7720 N   0  3  2  0  0  0  0  0  0  0  0  0
    5.1680   10.0030   -0.8480 C   0  0  0  0  0  0  0  0  0  0  0  0
    5.6940    9.1560   -2.0360 C   0  0  0  0  0  0  0  0  0  0  0  0
    5.4770    9.6380   -3.4220 N   0  0  0  0  0  0  0  0  0  0  0  0
    4.9480    9.1540   -4.5570 C   0  0  0  0  0  0  0  0  0  0  0  0
    5.9020   10.7700   -3.6070 N   0  0  0  0  0  0  0  0  0  0  0  0
    5.7390   11.1320   -4.6690 N   0  0  0  0  0  0  0  0  0  0  0  0
    5.1450   10.1860   -5.3690 C   0  0  0  0  0  0  0  0  0  0  0  0
    4.7910   10.3620   -6.8380 C   0  0  0  0  0  0  0  0  0  0  0  0
    3.3750   10.2730   -6.9480 O   0  0  0  0  0  0  0  0  0  0  0  0
    2.9460   10.0180   -8.2780 C   0  0  1  0  0  0  0  0  0  0  0  0
    3.4090   11.2960   -9.0950 C   0  0  0  0  0  0  0  0  0  0  0  0
    2.8170   12.3690   -8.8850 O   0  5  0  0  0  0  0  0  0  0  0  0
    4.4320   11.2160   -9.8310 O   0  0  0  0  0  0  0  0  0  0  0  0
    3.6080    8.8790   -8.8040 O   0  0  0  0  0  0  0  0  0  0  0  0
    1.4620    9.7730   -8.2340 C   0  0  0  0  0  0  0  0  0  0  0  0
    0.9360    9.4830   -9.6270 C   0  0  2  0  0  0  0  0  0  0  0  0
   -0.4850    9.2340   -9.5020 O   0  0  0  0  0  0  0  0  0  0  0  0
    1.6910    8.2380  -10.1010 C   0  0  1  0  0  0  0  0  0  0  0  0
    1.2880    7.8900  -11.4760 N   0  0  0  0  0  0  0  0  0  0  0  0
    0.5400    6.8010  -11.7930 C   0  0  0  0  0  0  0  0  0  0  0  0
    0.1460    5.9360  -10.9970 O   0  0  0  0  0  0  0  0  0  0  0  0
    0.2410    6.6320  -13.2740 C   0  0  0  0  0  0  0  0  0  0  0  0
    3.2070    8.5620  -10.1180 C   0  0  2  0  0  0  0  0  0  0  0  0
    4.0150    7.3460  -10.5790 C   0  0  2  0  0  0  0  0  0  0  0  0
    3.8280    6.2440   -9.6900 O   0  0  0  0  0  0  0  0  0  0  0  0
    5.4930    7.7710  -10.4320 C   0  0  2  0  0  0  0  0  0  0  0  0
    5.7510    9.0340  -11.0790 O   0  0  0  0  0  0  0  0  0  0  0  0
    6.4460    6.6860  -10.9060 C   0  0  0  0  0  0  0  0  0  0  0  0
    7.7940    7.1080  -10.6800 O   0  0  0  0  0  0  0  0  0  0  0  0
    3.0070   10.6260   -1.9990 C   0  0  0  0  0  0  0  0  0  0  0  0
    2.8260   12.1510   -2.1670 C   0  0  0  0  0  0  0  0  0  0  0  0
    1.8720   12.8530   -1.2250 N   0  0  0  0  0  0  0  0  0  0  0  0
    0.5680   12.6280   -1.4150 C   0  0  0  0  0  0  0  0  0  0  0  0
    2.0100   13.6190   -0.3290 N   0  0  0  0  0  0  0  0  0  0  0  0
    0.9020   13.9650    0.1860 N   0  0  0  0  0  0  0  0  0  0  0  0
   -0.0440   13.3590   -0.4960 C   0  0  0  0  0  0  0  0  0  0  0  0
   -1.5500   13.4760   -0.2270 C   0  0  0  0  0  0  0  0  0  0  0  0
   -2.1970   12.3240   -0.7470 O   0  0  0  0  0  0  0  0  0  0  0  0
   -3.5720   12.4020   -0.9640 C   0  0  1  0  0  0  0  0  0  0  0  0
   -4.1560   12.7290    0.4740 C   0  0  0  0  0  0  0  0  0  0  0  0
   -4.5580   13.8950    0.7270 O   0  5  0  0  0  0  0  0  0  0  0  0
   -4.1520   11.8410    1.3460 O   0  0  0  0  0  0  0  0  0  0  0  0
   -3.8710   13.4740   -1.8070 O   0  0  0  0  0  0  0  0  0  0  0  0
   -4.0290   11.0970   -1.5670 C   0  0  0  0  0  0  0  0  0  0  0  0
   -5.5140   11.1470   -1.8270 C   0  0  2  0  0  0  0  0  0  0  0  0
   -5.9100    9.9330   -2.4310 O   0  0  0  0  0  0  0  0  0  0  0  0
   -5.7460   12.3260   -2.8070 C   0  0  1  0  0  0  0  0  0  0  0  0
   -7.1760   12.4880   -3.1180 N   0  0  0  0  0  0  0  0  0  0  0  0
   -7.7200   12.2650   -4.3400 C   0  0  0  0  0  0  0  0  0  0  0  0
   -7.0580   11.9580   -5.3490 O   0  0  0  0  0  0  0  0  0  0  0  0
   -9.2330   12.5020   -4.4340 C   0  0  0  0  0  0  0  0  0  0  0  0
   -5.2400   13.6260   -2.1210 C   0  0  2  0  0  0  0  0  0  0  0  0
   -5.4250   14.8440   -3.0200 C   0  0  2  0  0  0  0  0  0  0  0  0
   -4.5910   14.6930   -4.1760 O   0  0  0  0  0  0  0  0  0  0  0  0
   -4.8710   16.0430   -2.2200 C   0  0  2  0  0  0  0  0  0  0  0  0
   -5.3770   16.1150   -0.8640 O   0  0  0  0  0  0  0  0  0  0  0  0
   -5.1340   17.3410   -2.9850 C   0  0  0  0  0  0  0  0  0  0  0  0
   -4.5870   18.4510   -2.2360 O   0  0  0  0  0  0  0  0  0  0  0  0
   -0.9481    1.5119    5.4787 H   0  0  0  0  0  0  0  0  0  0  0  0
   -2.1224    2.4450    3.6965 H   0  0  0  0  0  0  0  0  0  0  0  0
   -1.8864    0.6731    3.5186 H   0  0  0  0  0  0  0  0  0  0  0  0
   -0.1239    2.8618    2.3368 H   0  0  0  0  0  0  0  0  0  0  0  0
    0.8722    1.0553    1.2795 H   0  0  0  0  0  0  0  0  0  0  0  0
   -2.1760    1.0060    0.9915 H   0  0  0  0  0  0  0  0  0  0  0  0
   -1.8202    3.8558    1.1898 H   0  0  0  0  0  0  0  0  0  0  0  0
    0.0517    1.1669   -0.1766 H   0  0  0  0  0  0  0  0  0  0  0  0
   -2.0588    3.0360   -1.4157 H   0  0  0  0  0  0  0  0  0  0  0  0
   -1.8308    0.0431   -1.4519 H   0  0  0  0  0  0  0  0  0  0  0  0
   -5.2890   -0.2981   -2.2125 H   0  0  0  0  0  0  0  0  0  0  0  0
   -4.1234   -0.9375   -1.0046 H   0  0  0  0  0  0  0  0  0  0  0  0
   -3.7313   -1.0085   -2.7561 H   0  0  0  0  0  0  0  0  0  0  0  0
    0.2474    1.4054   -2.6847 H   0  0  0  0  0  0  0  0  0  0  0  0
   -1.6837    1.7782   -4.0573 H   0  0  0  0  0  0  0  0  0  0  0  0
   -0.3441    4.3970   -2.2715 H   0  0  0  0  0  0  0  0  0  0  0  0
    1.0970    3.7244   -3.1067 H   0  0  0  0  0  0  0  0  0  0  0  0
    3.1871    3.9057    0.6191 H   0  0  0  0  0  0  0  0  0  0  0  0
    1.6951    4.5770    1.3606 H   0  0  0  0  0  0  0  0  0  0  0  0
    1.6272    7.3411   -0.5862 H   0  0  0  0  0  0  0  0  0  0  0  0
    1.9498    9.9064    2.1578 H   0  0  0  0  0  0  0  0  0  0  0  0
    1.3089    9.7105    0.4912 H   0  0  0  0  0  0  0  0  0  0  0  0
    4.1726   10.4832    1.2581 H   0  0  0  0  0  0  0  0  0  0  0  0
    2.9165   11.5877    0.6032 H   0  0  0  0  0  0  0  0  0  0  0  0
    3.4110    9.2616   -0.7761 H   0  0  0  0  0  0  0  0  0  0  0  0
    5.4760    9.4991    0.0800 H   0  0  0  0  0  0  0  0  0  0  0  0
    5.6494   10.9903   -0.9064 H   0  0  0  0  0  0  0  0  0  0  0  0
    5.2173    8.1675   -1.9615 H   0  0  0  0  0  0  0  0  0  0  0  0
    6.7803    9.0506   -1.8991 H   0  0  0  0  0  0  0  0  0  0  0  0
    4.4872    8.1875   -4.7557 H   0  0  0  0  0  0  0  0  0  0  0  0
    5.2651    9.5702   -7.4365 H   0  0  0  0  0  0  0  0  0  0  0  0
    5.1346   11.3450   -7.1924 H   0  0  0  0  0  0  0  0  0  0  0  0
    0.9583   10.6655   -7.8342 H   0  0  0  0  0  0  0  0  0  0  0  0
    1.2553    8.9120   -7.5813 H   0  0  0  0  0  0  0  0  0  0  0  0
    1.1160   10.3266  -10.3096 H   0  0  0  0  0  0  0  0  0  0  0  0
   -0.8494    9.0479  -10.3594 H   0  0  0  0  0  0  0  0  0  0  0  0
    1.4867    7.3955   -9.4239 H   0  0  0  0  0  0  0  0  0  0  0  0
    1.5826    8.4910  -12.2190 H   0  0  0  0  0  0  0  0  0  0  0  0
   -0.3661    5.7271  -13.4245 H   0  0  0  0  0  0  0  0  0  0  0  0
    1.1852    6.5367  -13.8302 H   0  0  0  0  0  0  0  0  0  0  0  0
   -0.3125    7.5098  -13.6388 H   0  0  0  0  0  0  0  0  0  0  0  0
    3.3973    9.4119  -10.7899 H   0  0  0  0  0  0  0  0  0  0  0  0
    3.7624    7.0671  -11.6126 H   0  0  0  0  0  0  0  0  0  0  0  0
    4.1148    6.4896   -8.8183 H   0  0  0  0  0  0  0  0  0  0  0  0
    5.6806    7.9156   -9.3578 H   0  0  0  0  0  0  0  0  0  0  0  0
    5.2054    9.7062  -10.6878 H   0  0  0  0  0  0  0  0  0  0  0  0
    6.2927    6.5061  -11.9803 H   0  0  0  0  0  0  0  0  0  0  0  0
    6.2531    5.7581  -10.3476 H   0  0  0  0  0  0  0  0  0  0  0  0
    8.3906    6.4305  -10.9760 H   0  0  0  0  0  0  0  0  0  0  0  0
    2.0098   10.1619   -1.9866 H   0  0  0  0  0  0  0  0  0  0  0  0
    3.5752   10.2511   -2.8630 H   0  0  0  0  0  0  0  0  0  0  0  0
    2.4666   12.3286   -3.1914 H   0  0  0  0  0  0  0  0  0  0  0  0
    3.8150   12.6155   -2.0397 H   0  0  0  0  0  0  0  0  0  0  0  0
    0.1088   11.9835   -2.1631 H   0  0  0  0  0  0  0  0  0  0  0  0
   -1.9451   14.3764   -0.7201 H   0  0  0  0  0  0  0  0  0  0  0  0
   -1.7282   13.5431    0.8564 H   0  0  0  0  0  0  0  0  0  0  0  0
   -3.8077   10.2753   -0.8700 H   0  0  0  0  0  0  0  0  0  0  0  0
   -3.4978   10.9268   -2.5151 H   0  0  0  0  0  0  0  0  0  0  0  0
   -6.0710   11.3048   -0.8917 H   0  0  0  0  0  0  0  0  0  0  0  0
   -6.8448    9.9544   -2.5991 H   0  0  0  0  0  0  0  0  0  0  0  0
   -5.1869   12.1470   -3.7372 H   0  0  0  0  0  0  0  0  0  0  0  0
   -7.7850   12.7812   -2.3810 H   0  0  0  0  0  0  0  0  0  0  0  0
   -9.5735   12.2949   -5.4592 H   0  0  0  0  0  0  0  0  0  0  0  0
   -9.4570   13.5480   -4.1776 H   0  0  0  0  0  0  0  0  0  0  0  0
   -9.7532   11.8330   -3.7327 H   0  0  0  0  0  0  0  0  0  0  0  0
   -5.8097   13.7827   -1.1932 H   0  0  0  0  0  0  0  0  0  0  0  0
   -6.4792   14.9861   -3.3002 H   0  0  0  0  0  0  0  0  0  0  0  0
   -3.6832   14.6271   -3.9038 H   0  0  0  0  0  0  0  0  0  0  0  0
   -3.7811   15.9125   -2.1489 H   0  0  0  0  0  0  0  0  0  0  0  0
   -5.1375   15.3242   -0.3954 H   0  0  0  0  0  0  0  0  0  0  0  0
   -6.2177   17.4807   -3.1119 H   0  0  0  0  0  0  0  0  0  0  0  0
   -4.6527   17.2904   -3.9728 H   0  0  0  0  0  0  0  0  0  0  0  0
   -4.7481   19.2598   -2.7076 H   0  0  0  0  0  0  0  0  0  0  0  0
  1  2  1  0  0  0  0
  1 89  1  0  0  0  0
  2  3  1  0  0  0  0
  2 90  1  0  0  0  0
  2 91  1  0  0  0  0
  3  4  1  0  0  0  0
  3  5  1  0  0  0  0
  3 92  1  1  0  0  0
  4 93  1  0  0  0  0
  5  6  1  0  0  0  0
  5  7  1  0  0  0  0
  5 94  1  6  0  0  0
  6 95  1  0  0  0  0
  7  8  1  0  0  0  0
  7  9  1  0  0  0  0
  7 96  1  6  0  0  0
  8 17  1  0  0  0  0
  9 10  1  0  0  0  0
  9 14  1  0  0  0  0
  9 97  1  1  0  0  0
 10 11  1  0  0  0  0
 10 98  1  0  0  0  0
 11 12  2  0  0  0  0
 11 13  1  0  0  0  0
 13 99  1  0  0  0  0
 13100  1  0  0  0  0
 13101  1  0  0  0  0
 14 15  1  0  0  0  0
 14 16  1  0  0  0  0
 14102  1  6  0  0  0
 15103  1  0  0  0  0
 16 17  1  0  0  0  0
 16104  1  0  0  0  0
 16105  1  0  0  0  0
 17 18  1  6  0  0  0
 17 21  1  0  0  0  0
 18 19  1  0  0  0  0
 18 20  2  0  0  0  0
 21 22  1  0  0  0  0
 22 23  1  0  0  0  0
 22106  1  0  0  0  0
 22107  1  0  0  0  0
 23 24  2  0  0  0  0
 23 25  1  0  0  0  0
 24 27  1  0  0  0  0
 24108  1  0  0  0  0
 25 26  2  0  0  0  0
 26 27  1  0  0  0  0
 27 28  1  0  0  0  0
 28 29  1  0  0  0  0
 28109  1  0  0  0  0
 28110  1  0  0  0  0
 29 30  1  0  0  0  0
 29111  1  0  0  0  0
 29112  1  0  0  0  0
 30 31  1  0  0  0  0
 30 60  1  0  0  0  0
 30113  1  1  0  0  0
 31 32  1  0  0  0  0
 31114  1  0  0  0  0
 31115  1  0  0  0  0
 32 33  1  0  0  0  0
 32116  1  0  0  0  0
 32117  1  0  0  0  0
 33 34  1  0  0  0  0
 33 35  1  0  0  0  0
 34 37  2  0  0  0  0
 34118  1  0  0  0  0
 35 36  2  0  0  0  0
 36 37  1  0  0  0  0
 37 38  1  0  0  0  0
 38 39  1  0  0  0  0
 38119  1  0  0  0  0
 38120  1  0  0  0  0
 40 39  1  1  0  0  0
 40 41  1  0  0  0  0
 40 44  1  0  0  0  0
 40 45  1  0  0  0  0
 41 42  1  0  0  0  0
 41 43  2  0  0  0  0
 44 53  1  0  0  0  0
 45 46  1  0  0  0  0
 45121  1  0  0  0  0
 45122  1  0  0  0  0
 46 47  1  0  0  0  0
 46 48  1  0  0  0  0
 46123  1  6  0  0  0
 47124  1  0  0  0  0
 48 49  1  0  0  0  0
 48 53  1  0  0  0  0
 48125  1  1  0  0  0
 49 50  1  0  0  0  0
 49126  1  0  0  0  0
 50 51  2  0  0  0  0
 50 52  1  0  0  0  0
 52127  1  0  0  0  0
 52128  1  0  0  0  0
 52129  1  0  0  0  0
 53 54  1  0  0  0  0
 53130  1  6  0  0  0
 54 55  1  0  0  0  0
 54 56  1  0  0  0  0
 54131  1  6  0  0  0
 55132  1  0  0  0  0
 56 57  1  0  0  0  0
 56 58  1  0  0  0  0
 56133  1  1  0  0  0
 57134  1  0  0  0  0
 58 59  1  0  0  0  0
 58135  1  0  0  0  0
 58136  1  0  0  0  0
 59137  1  0  0  0  0
 60 61  1  0  0  0  0
 60138  1  0  0  0  0
 60139  1  0  0  0  0
 61 62  1  0  0  0  0
 61140  1  0  0  0  0
 61141  1  0  0  0  0
 62 63  1  0  0  0  0
 62 64  1  0  0  0  0
 63 66  2  0  0  0  0
 63142  1  0  0  0  0
 64 65  2  0  0  0  0
 65 66  1  0  0  0  0
 66 67  1  0  0  0  0
 67 68  1  0  0  0  0
 67143  1  0  0  0  0
 67144  1  0  0  0  0
 69 68  1  1  0  0  0
 69 70  1  0  0  0  0
 69 73  1  0  0  0  0
 69 74  1  0  0  0  0
 70 71  1  0  0  0  0
 70 72  2  0  0  0  0
 73 82  1  0  0  0  0
 74 75  1  0  0  0  0
 74145  1  0  0  0  0
 74146  1  0  0  0  0
 75 76  1  0  0  0  0
 75 77  1  0  0  0  0
 75147  1  1  0  0  0
 76148  1  0  0  0  0
 77 78  1  0  0  0  0
 77 82  1  0  0  0  0
 77149  1  6  0  0  0
 78 79  1  0  0  0  0
 78150  1  0  0  0  0
 79 80  2  0  0  0  0
 79 81  1  0  0  0  0
 81151  1  0  0  0  0
 81152  1  0  0  0  0
 81153  1  0  0  0  0
 82 83  1  0  0  0  0
 82154  1  1  0  0  0
 83 84  1  0  0  0  0
 83 85  1  0  0  0  0
 83155  1  6  0  0  0
 84156  1  0  0  0  0
 85 86  1  0  0  0  0
 85 87  1  0  0  0  0
 85157  1  1  0  0  0
 86158  1  0  0  0  0
 87 88  1  0  0  0  0
 87159  1  0  0  0  0
 87160  1  0  0  0  0
 88161  1  0  0  0  0
M  CHG  4  19  -1  30   1  42  -1  71  -1
M  END
