4xqb_ligand
 OpenBabel08222323353D

170175  0  0  1  0  0  0  0  0999 V2000
  -24.1140   10.2700  -34.2230 O   0  0  0  0  0  0  0  0  0  0  0  0
  -25.3420    9.5900  -34.4840 C   0  0  0  0  0  0  0  0  0  0  0  0
  -26.1480    9.4800  -33.1880 C   0  0  1  0  0  0  0  0  0  0  0  0
  -27.4180    8.8590  -33.4220 O   0  0  0  0  0  0  0  0  0  0  0  0
  -25.3840    8.6960  -32.1200 C   0  0  1  0  0  0  0  0  0  0  0  0
  -24.2270    9.4500  -31.7860 O   0  0  0  0  0  0  0  0  0  0  0  0
  -26.3410    8.6650  -30.9460 C   0  0  2  0  0  0  0  0  0  0  0  0
  -26.5950   10.0130  -30.5110 O   0  0  0  0  0  0  0  0  0  0  0  0
  -25.7180    7.8940  -29.7690 C   0  0  2  0  0  0  0  0  0  0  0  0
  -25.3040    6.5430  -30.1790 N   0  0  0  0  0  0  0  0  0  0  0  0
  -24.1120    5.9970  -29.8750 C   0  0  0  0  0  0  0  0  0  0  0  0
  -23.1590    6.6060  -29.3830 O   0  0  0  0  0  0  0  0  0  0  0  0
  -23.9310    4.5850  -30.4190 C   0  0  0  0  0  0  0  0  0  0  0  0
  -26.7110    7.8800  -28.5820 C   0  0  1  0  0  0  0  0  0  0  0  0
  -26.1400    7.2520  -27.4130 O   0  0  0  0  0  0  0  0  0  0  0  0
  -26.9450    9.3220  -28.2300 C   0  0  0  0  0  0  0  0  0  0  0  0
  -27.5130   10.0730  -29.4150 C   0  0  2  0  0  0  0  0  0  0  0  0
  -28.9310    9.5940  -29.8810 C   0  0  0  0  0  0  0  0  0  0  0  0
  -29.8180    9.5880  -29.0120 O   0  5  0  0  0  0  0  0  0  0  0  0
  -29.1430    9.3580  -31.1000 O   0  0  0  0  0  0  0  0  0  0  0  0
  -27.7010   11.4160  -29.0120 O   0  0  0  0  0  0  0  0  0  0  0  0
  -28.1920   12.3480  -29.9680 C   0  0  0  0  0  0  0  0  0  0  0  0
  -27.9860   13.7310  -29.3300 C   0  0  0  0  0  0  0  0  0  0  0  0
  -28.5260   14.8080  -30.2670 C   0  0  0  0  0  0  0  0  0  0  0  0
  -29.5510   15.6100  -30.0170 C   0  0  0  0  0  0  0  0  0  0  0  0
  -28.0530   15.0740  -31.4710 N   0  0  0  0  0  0  0  0  0  0  0  0
  -28.7440   15.9860  -31.9310 N   0  0  0  0  0  0  0  0  0  0  0  0
  -29.6510   16.3590  -31.1160 N   0  0  0  0  0  0  0  0  0  0  0  0
  -30.5240   17.3460  -31.4210 C   0  0  0  0  0  0  0  0  0  0  0  0
  -29.7590   18.6770  -31.4950 C   0  0  0  0  0  0  0  0  0  0  0  0
  -29.2390   19.0450  -30.3210 N   0  3  1  0  0  0  0  0  0  0  0  0
  -28.3670   20.1830  -30.6180 C   0  0  0  0  0  0  0  0  0  0  0  0
  -27.0530   19.7070  -31.2410 C   0  0  0  0  0  0  0  0  0  0  0  0
  -26.3010   18.8540  -30.2550 N   0  0  0  0  0  0  0  0  0  0  0  0
  -25.8600   17.6020  -30.3650 C   0  0  0  0  0  0  0  0  0  0  0  0
  -25.9680   19.3010  -29.0970 N   0  0  0  0  0  0  0  0  0  0  0  0
  -25.3340   18.4130  -28.4320 N   0  0  0  0  0  0  0  0  0  0  0  0
  -25.2590   17.3390  -29.2090 C   0  0  0  0  0  0  0  0  0  0  0  0
  -24.6600   16.1860  -28.8970 C   0  0  0  0  0  0  0  0  0  0  0  0
  -23.1520   16.3970  -28.6410 C   0  0  0  0  0  0  0  0  0  0  0  0
  -22.5860   15.1850  -28.3460 O   0  0  0  0  0  0  0  0  0  0  0  0
  -21.1770   15.2010  -28.0020 C   0  0  1  0  0  0  0  0  0  0  0  0
  -20.4850   15.7180  -29.2910 C   0  0  0  0  0  0  0  0  0  0  0  0
  -20.7030   15.0510  -30.3230 O   0  5  0  0  0  0  0  0  0  0  0  0
  -19.8460   16.7940  -29.2720 O   0  0  0  0  0  0  0  0  0  0  0  0
  -20.9660   16.0270  -26.8550 O   0  0  0  0  0  0  0  0  0  0  0  0
  -20.7100   13.7800  -27.6800 C   0  0  0  0  0  0  0  0  0  0  0  0
  -19.2350   13.7520  -27.3060 C   0  0  2  0  0  0  0  0  0  0  0  0
  -18.9370   12.3850  -26.9910 O   0  0  0  0  0  0  0  0  0  0  0  0
  -19.1350   14.6650  -26.0650 C   0  0  1  0  0  0  0  0  0  0  0  0
  -17.7450   14.6420  -25.5330 N   0  0  0  0  0  0  0  0  0  0  0  0
  -17.3550   13.8630  -24.4980 C   0  0  0  0  0  0  0  0  0  0  0  0
  -15.8770   13.9830  -24.0970 C   0  0  0  0  0  0  0  0  0  0  0  0
  -18.1420   13.2900  -23.7410 O   0  0  0  0  0  0  0  0  0  0  0  0
  -19.6040   16.0880  -26.4190 C   0  0  2  0  0  0  0  0  0  0  0  0
  -19.5260   16.9900  -25.2050 C   0  0  2  0  0  0  0  0  0  0  0  0
  -20.4690   16.4820  -24.2590 O   0  0  0  0  0  0  0  0  0  0  0  0
  -19.9770   18.3830  -25.6210 C   0  0  2  0  0  0  0  0  0  0  0  0
  -18.9470   18.8900  -26.4660 O   0  0  0  0  0  0  0  0  0  0  0  0
  -20.0540   19.3060  -24.4020 C   0  0  0  0  0  0  0  0  0  0  0  0
  -18.7860   19.4160  -23.7650 O   0  0  0  0  0  0  0  0  0  0  0  0
  -30.3620   19.5050  -29.5060 C   0  0  0  0  0  0  0  0  0  0  0  0
  -29.9020   19.7960  -28.0730 C   0  0  0  0  0  0  0  0  0  0  0  0
  -29.4200   18.5480  -27.3940 N   0  0  0  0  0  0  0  0  0  0  0  0
  -28.2550   18.2660  -26.8110 C   0  0  0  0  0  0  0  0  0  0  0  0
  -30.1930   17.5450  -27.2760 N   0  0  0  0  0  0  0  0  0  0  0  0
  -29.6260   16.6010  -26.6690 N   0  0  0  0  0  0  0  0  0  0  0  0
  -28.4080   17.0270  -26.3650 C   0  0  0  0  0  0  0  0  0  0  0  0
  -27.3540   16.2200  -25.6100 C   0  0  0  0  0  0  0  0  0  0  0  0
  -27.8510   15.8850  -24.1960 C   0  0  0  0  0  0  0  0  0  0  0  0
  -26.7820   15.1720  -23.5840 O   0  0  0  0  0  0  0  0  0  0  0  0
  -27.0450   14.5010  -22.3560 C   0  0  1  0  0  0  0  0  0  0  0  0
  -27.4700   15.6390  -21.3590 C   0  0  0  0  0  0  0  0  0  0  0  0
  -28.6750   15.7380  -21.0070 O   0  5  0  0  0  0  0  0  0  0  0  0
  -26.5890   16.4600  -21.0400 O   0  0  0  0  0  0  0  0  0  0  0  0
  -28.0990   13.5730  -22.5100 O   0  0  0  0  0  0  0  0  0  0  0  0
  -25.7930   13.7570  -21.9380 C   0  0  0  0  0  0  0  0  0  0  0  0
  -25.9940   13.0150  -20.6360 C   0  0  2  0  0  0  0  0  0  0  0  0
  -24.7600   12.2850  -20.4230 O   0  0  0  0  0  0  0  0  0  0  0  0
  -27.1370   12.0230  -20.9220 C   0  0  1  0  0  0  0  0  0  0  0  0
  -27.4100   11.2870  -19.6690 N   0  0  0  0  0  0  0  0  0  0  0  0
  -27.0970    9.9850  -19.4970 C   0  0  0  0  0  0  0  0  0  0  0  0
  -26.7060    9.2500  -20.4040 O   0  0  0  0  0  0  0  0  0  0  0  0
  -27.4580    9.3980  -18.1270 C   0  0  0  0  0  0  0  0  0  0  0  0
  -28.3790   12.8630  -21.3160 C   0  0  2  0  0  0  0  0  0  0  0  0
  -29.5350   11.9270  -21.6150 C   0  0  2  0  0  0  0  0  0  0  0  0
  -29.1690   11.1230  -22.7450 O   0  0  0  0  0  0  0  0  0  0  0  0
  -30.6930   12.8430  -22.0340 C   0  0  2  0  0  0  0  0  0  0  0  0
  -30.9900   13.7340  -20.9620 O   0  0  0  0  0  0  0  0  0  0  0  0
  -31.9650   12.0620  -22.3940 C   0  0  0  0  0  0  0  0  0  0  0  0
  -32.3990   11.3210  -21.2550 O   0  0  0  0  0  0  0  0  0  0  0  0
  -23.6143    9.7828  -33.5786 H   0  0  0  0  0  0  0  0  0  0  0  0
  -25.1286    8.5823  -34.8699 H   0  0  0  0  0  0  0  0  0  0  0  0
  -25.9219   10.1532  -35.2300 H   0  0  0  0  0  0  0  0  0  0  0  0
  -26.3241   10.4977  -32.8096 H   0  0  0  0  0  0  0  0  0  0  0  0
  -27.2828    7.9860  -33.7716 H   0  0  0  0  0  0  0  0  0  0  0  0
  -25.1142    7.6837  -32.4553 H   0  0  0  0  0  0  0  0  0  0  0  0
  -23.6909    9.5657  -32.5617 H   0  0  0  0  0  0  0  0  0  0  0  0
  -27.2821    8.1834  -31.2501 H   0  0  0  0  0  0  0  0  0  0  0  0
  -24.8149    8.4327  -29.4463 H   0  0  0  0  0  0  0  0  0  0  0  0
  -25.9473    5.9974  -30.7161 H   0  0  0  0  0  0  0  0  0  0  0  0
  -22.9389    4.2061  -30.1324 H   0  0  0  0  0  0  0  0  0  0  0  0
  -24.0146    4.6010  -31.5157 H   0  0  0  0  0  0  0  0  0  0  0  0
  -24.7088    3.9287  -30.0015 H   0  0  0  0  0  0  0  0  0  0  0  0
  -27.6465    7.3768  -28.8675 H   0  0  0  0  0  0  0  0  0  0  0  0
  -25.9075    6.3542  -27.6189 H   0  0  0  0  0  0  0  0  0  0  0  0
  -25.9904    9.7817  -27.9343 H   0  0  0  0  0  0  0  0  0  0  0  0
  -27.6548    9.3791  -27.3916 H   0  0  0  0  0  0  0  0  0  0  0  0
  -29.2593   12.1704  -30.1662 H   0  0  0  0  0  0  0  0  0  0  0  0
  -27.6264   12.2695  -30.9082 H   0  0  0  0  0  0  0  0  0  0  0  0
  -26.9127   13.8993  -29.1576 H   0  0  0  0  0  0  0  0  0  0  0  0
  -28.5229   13.7763  -28.3710 H   0  0  0  0  0  0  0  0  0  0  0  0
  -30.1689   15.6485  -29.1211 H   0  0  0  0  0  0  0  0  0  0  0  0
  -31.2992   17.4077  -30.6430 H   0  0  0  0  0  0  0  0  0  0  0  0
  -30.9953   17.1358  -32.3924 H   0  0  0  0  0  0  0  0  0  0  0  0
  -30.4520   19.4615  -31.8329 H   0  0  0  0  0  0  0  0  0  0  0  0
  -28.9413   18.5715  -32.2231 H   0  0  0  0  0  0  0  0  0  0  0  0
  -28.7360   18.2956  -29.8722 H   0  0  0  0  0  0  0  0  0  0  0  0
  -28.1495   20.7247  -29.6857 H   0  0  0  0  0  0  0  0  0  0  0  0
  -28.8781   20.8558  -31.3224 H   0  0  0  0  0  0  0  0  0  0  0  0
  -26.4399   20.5793  -31.5113 H   0  0  0  0  0  0  0  0  0  0  0  0
  -27.2695   19.1170  -32.1438 H   0  0  0  0  0  0  0  0  0  0  0  0
  -25.9687   16.9360  -31.2197 H   0  0  0  0  0  0  0  0  0  0  0  0
  -24.7879   15.4776  -29.7288 H   0  0  0  0  0  0  0  0  0  0  0  0
  -25.1246   15.7734  -27.9893 H   0  0  0  0  0  0  0  0  0  0  0  0
  -23.0124   17.0869  -27.7957 H   0  0  0  0  0  0  0  0  0  0  0  0
  -22.6786   16.8182  -29.5402 H   0  0  0  0  0  0  0  0  0  0  0  0
  -20.8676   13.1427  -28.5626 H   0  0  0  0  0  0  0  0  0  0  0  0
  -21.3004   13.3915  -26.8371 H   0  0  0  0  0  0  0  0  0  0  0  0
  -18.5896   14.1161  -28.1189 H   0  0  0  0  0  0  0  0  0  0  0  0
  -18.0216   12.3094  -26.7486 H   0  0  0  0  0  0  0  0  0  0  0  0
  -19.8043   14.2705  -25.2863 H   0  0  0  0  0  0  0  0  0  0  0  0
  -17.0634   15.2337  -25.9634 H   0  0  0  0  0  0  0  0  0  0  0  0
  -15.6708   13.3106  -23.2512 H   0  0  0  0  0  0  0  0  0  0  0  0
  -15.6601   15.0203  -23.8021 H   0  0  0  0  0  0  0  0  0  0  0  0
  -15.2417   13.7040  -24.9505 H   0  0  0  0  0  0  0  0  0  0  0  0
  -18.9712   16.4950  -27.2215 H   0  0  0  0  0  0  0  0  0  0  0  0
  -18.5092   17.0120  -24.7859 H   0  0  0  0  0  0  0  0  0  0  0  0
  -21.3391   16.4999  -24.6400 H   0  0  0  0  0  0  0  0  0  0  0  0
  -20.9456   18.3439  -26.1409 H   0  0  0  0  0  0  0  0  0  0  0  0
  -18.1297   18.9223  -25.9828 H   0  0  0  0  0  0  0  0  0  0  0  0
  -20.7819   18.8966  -23.6861 H   0  0  0  0  0  0  0  0  0  0  0  0
  -20.3812   20.3047  -24.7270 H   0  0  0  0  0  0  0  0  0  0  0  0
  -18.1545   19.7727  -24.3786 H   0  0  0  0  0  0  0  0  0  0  0  0
  -31.1378   18.7255  -29.4858 H   0  0  0  0  0  0  0  0  0  0  0  0
  -30.7766   20.4237  -29.9466 H   0  0  0  0  0  0  0  0  0  0  0  0
  -30.7458   20.2117  -27.5027 H   0  0  0  0  0  0  0  0  0  0  0  0
  -29.0820   20.5287  -28.1012 H   0  0  0  0  0  0  0  0  0  0  0  0
  -27.3787   18.9064  -26.7216 H   0  0  0  0  0  0  0  0  0  0  0  0
  -26.4279   16.8093  -25.5389 H   0  0  0  0  0  0  0  0  0  0  0  0
  -27.1533   15.2857  -26.1548 H   0  0  0  0  0  0  0  0  0  0  0  0
  -28.7548   15.2597  -24.2428 H   0  0  0  0  0  0  0  0  0  0  0  0
  -28.0708   16.8059  -23.6361 H   0  0  0  0  0  0  0  0  0  0  0  0
  -24.9731   14.4797  -21.8139 H   0  0  0  0  0  0  0  0  0  0  0  0
  -25.5286   13.0339  -22.7236 H   0  0  0  0  0  0  0  0  0  0  0  0
  -26.2280   13.6824  -19.7935 H   0  0  0  0  0  0  0  0  0  0  0  0
  -24.6174   11.6880  -21.1481 H   0  0  0  0  0  0  0  0  0  0  0  0
  -26.8661   11.3267  -21.7293 H   0  0  0  0  0  0  0  0  0  0  0  0
  -27.8467   11.7762  -18.9140 H   0  0  0  0  0  0  0  0  0  0  0  0
  -27.1625    8.3390  -18.0925 H   0  0  0  0  0  0  0  0  0  0  0  0
  -28.5431    9.4812  -17.9668 H   0  0  0  0  0  0  0  0  0  0  0  0
  -26.9274    9.9526  -17.3391 H   0  0  0  0  0  0  0  0  0  0  0  0
  -28.6420   13.5574  -20.5045 H   0  0  0  0  0  0  0  0  0  0  0  0
  -29.7967   11.3041  -20.7470 H   0  0  0  0  0  0  0  0  0  0  0  0
  -28.9992   11.6860  -23.4911 H   0  0  0  0  0  0  0  0  0  0  0  0
  -30.3783   13.4241  -22.9134 H   0  0  0  0  0  0  0  0  0  0  0  0
  -31.2388   13.2324  -20.1945 H   0  0  0  0  0  0  0  0  0  0  0  0
  -31.7503   11.3709  -23.2224 H   0  0  0  0  0  0  0  0  0  0  0  0
  -32.7545   12.7649  -22.6982 H   0  0  0  0  0  0  0  0  0  0  0  0
  -32.5833   11.9195  -20.5407 H   0  0  0  0  0  0  0  0  0  0  0  0
  1  2  1  0  0  0  0
  1 92  1  0  0  0  0
  2  3  1  0  0  0  0
  2 93  1  0  0  0  0
  2 94  1  0  0  0  0
  3  4  1  0  0  0  0
  3  5  1  0  0  0  0
  3 95  1  1  0  0  0
  4 96  1  0  0  0  0
  5  6  1  0  0  0  0
  5  7  1  0  0  0  0
  5 97  1  6  0  0  0
  6 98  1  0  0  0  0
  7  8  1  0  0  0  0
  7  9  1  0  0  0  0
  7 99  1  6  0  0  0
  8 17  1  0  0  0  0
  9 10  1  0  0  0  0
  9 14  1  0  0  0  0
  9100  1  1  0  0  0
 10 11  1  0  0  0  0
 10101  1  0  0  0  0
 11 12  2  0  0  0  0
 11 13  1  0  0  0  0
 13102  1  0  0  0  0
 13103  1  0  0  0  0
 13104  1  0  0  0  0
 14 15  1  0  0  0  0
 14 16  1  0  0  0  0
 14105  1  6  0  0  0
 15106  1  0  0  0  0
 16 17  1  0  0  0  0
 16107  1  0  0  0  0
 16108  1  0  0  0  0
 17 18  1  6  0  0  0
 17 21  1  0  0  0  0
 18 19  1  0  0  0  0
 18 20  2  0  0  0  0
 21 22  1  0  0  0  0
 22 23  1  0  0  0  0
 22109  1  0  0  0  0
 22110  1  0  0  0  0
 23 24  1  0  0  0  0
 23111  1  0  0  0  0
 23112  1  0  0  0  0
 24 25  2  0  0  0  0
 24 26  1  0  0  0  0
 25 28  1  0  0  0  0
 25113  1  0  0  0  0
 26 27  2  0  0  0  0
 27 28  1  0  0  0  0
 28 29  1  0  0  0  0
 29 30  1  0  0  0  0
 29114  1  0  0  0  0
 29115  1  0  0  0  0
 30 31  1  0  0  0  0
 30116  1  0  0  0  0
 30117  1  0  0  0  0
 31 32  1  0  0  0  0
 31 62  1  0  0  0  0
 31118  1  1  0  0  0
 32 33  1  0  0  0  0
 32119  1  0  0  0  0
 32120  1  0  0  0  0
 33 34  1  0  0  0  0
 33121  1  0  0  0  0
 33122  1  0  0  0  0
 34 35  1  0  0  0  0
 34 36  1  0  0  0  0
 35 38  2  0  0  0  0
 35123  1  0  0  0  0
 36 37  2  0  0  0  0
 37 38  1  0  0  0  0
 38 39  1  0  0  0  0
 39 40  1  0  0  0  0
 39124  1  0  0  0  0
 39125  1  0  0  0  0
 40 41  1  0  0  0  0
 40126  1  0  0  0  0
 40127  1  0  0  0  0
 42 41  1  6  0  0  0
 42 43  1  0  0  0  0
 42 46  1  0  0  0  0
 42 47  1  0  0  0  0
 43 44  1  0  0  0  0
 43 45  2  0  0  0  0
 46 55  1  0  0  0  0
 47 48  1  0  0  0  0
 47128  1  0  0  0  0
 47129  1  0  0  0  0
 48 49  1  0  0  0  0
 48 50  1  0  0  0  0
 48130  1  6  0  0  0
 49131  1  0  0  0  0
 50 51  1  0  0  0  0
 50 55  1  0  0  0  0
 50132  1  1  0  0  0
 51 52  1  0  0  0  0
 51133  1  0  0  0  0
 52 53  1  0  0  0  0
 52 54  2  0  0  0  0
 53134  1  0  0  0  0
 53135  1  0  0  0  0
 53136  1  0  0  0  0
 55 56  1  0  0  0  0
 55137  1  6  0  0  0
 56 57  1  0  0  0  0
 56 58  1  0  0  0  0
 56138  1  1  0  0  0
 57139  1  0  0  0  0
 58 59  1  0  0  0  0
 58 60  1  0  0  0  0
 58140  1  6  0  0  0
 59141  1  0  0  0  0
 60 61  1  0  0  0  0
 60142  1  0  0  0  0
 60143  1  0  0  0  0
 61144  1  0  0  0  0
 62 63  1  0  0  0  0
 62145  1  0  0  0  0
 62146  1  0  0  0  0
 63 64  1  0  0  0  0
 63147  1  0  0  0  0
 63148  1  0  0  0  0
 64 65  1  0  0  0  0
 64 66  1  0  0  0  0
 65 68  2  0  0  0  0
 65149  1  0  0  0  0
 66 67  2  0  0  0  0
 67 68  1  0  0  0  0
 68 69  1  0  0  0  0
 69 70  1  0  0  0  0
 69150  1  0  0  0  0
 69151  1  0  0  0  0
 70 71  1  0  0  0  0
 70152  1  0  0  0  0
 70153  1  0  0  0  0
 72 71  1  6  0  0  0
 72 73  1  0  0  0  0
 72 76  1  0  0  0  0
 72 77  1  0  0  0  0
 73 74  1  0  0  0  0
 73 75  2  0  0  0  0
 76 85  1  0  0  0  0
 77 78  1  0  0  0  0
 77154  1  0  0  0  0
 77155  1  0  0  0  0
 78 79  1  0  0  0  0
 78 80  1  0  0  0  0
 78156  1  1  0  0  0
 79157  1  0  0  0  0
 80 81  1  0  0  0  0
 80 85  1  0  0  0  0
 80158  1  6  0  0  0
 81 82  1  0  0  0  0
 81159  1  0  0  0  0
 82 83  2  0  0  0  0
 82 84  1  0  0  0  0
 84160  1  0  0  0  0
 84161  1  0  0  0  0
 84162  1  0  0  0  0
 85 86  1  0  0  0  0
 85163  1  1  0  0  0
 86 87  1  0  0  0  0
 86 88  1  0  0  0  0
 86164  1  1  0  0  0
 87165  1  0  0  0  0
 88 89  1  0  0  0  0
 88 90  1  0  0  0  0
 88166  1  6  0  0  0
 89167  1  0  0  0  0
 90 91  1  0  0  0  0
 90168  1  0  0  0  0
 90169  1  0  0  0  0
 91170  1  0  0  0  0
M  CHG  4  19  -1  31   1  44  -1  74  -1
M  END
