4xqu_ligand
 OpenBabel08222323353D

 87 89  0  0  1  0  0  0  0  0999 V2000
    5.5980   63.3970  142.9590 C   0  0  0  0  0  0  0  0  0  0  0  0
    5.9330   64.6800  142.2270 C   0  0  1  0  0  0  0  0  0  0  0  0
    5.7300   65.8890  143.1520 C   0  0  0  0  0  0  0  0  0  0  0  0
    6.7930   65.9440  144.2520 C   0  0  1  0  0  0  0  0  0  0  0  0
    8.2130   65.8530  143.6990 C   0  0  2  0  0  0  0  0  0  0  0  0
    8.3600   64.7090  142.6930 C   0  0  2  0  0  0  0  0  0  0  0  0
    9.6800   64.7930  141.9240 C   0  0  1  0  0  0  0  0  0  0  0  0
   10.0020   63.4930  141.1810 C   0  0  1  0  0  0  0  0  0  0  0  0
   11.4390   63.4870  140.6710 C   0  0  0  0  0  0  0  0  0  0  0  0
   10.1590   66.4760  145.0500 C   0  0  0  0  0  0  0  0  0  0  0  0
    9.9220   67.5410  146.0800 C   0  0  0  0  0  0  0  0  0  0  0  0
    9.1330   65.6590  144.8080 N   0  0  0  0  0  0  0  0  0  0  0  0
    6.2830   62.3730  142.7390 O   0  5  0  0  0  0  0  0  0  0  0  0
    4.6220   63.3900  143.7420 O   0  0  0  0  0  0  0  0  0  0  0  0
    6.6570   67.1560  145.0030 O   0  0  0  0  0  0  0  0  0  0  0  0
    7.2830   64.6720  141.7400 O   0  0  0  0  0  0  0  0  0  0  0  0
    9.6210   65.8830  140.9930 O   0  0  0  0  0  0  0  0  0  0  0  0
    9.8150   62.3630  142.0440 O   0  0  0  0  0  0  0  0  0  0  0  0
   11.6930   62.2690  139.9600 O   0  0  0  0  0  0  0  0  0  0  0  0
   11.2290   66.3610  144.4740 O   0  0  0  0  0  0  0  0  0  0  0  0
    3.8810   66.2630  137.8980 C   0  0  1  0  0  0  0  0  0  0  0  0
    3.8620   65.4250  139.1820 C   0  0  1  0  0  0  0  0  0  0  0  0
    5.0580   65.6980  140.1020 C   0  0  2  0  0  0  0  0  0  0  0  0
    6.3800   65.6910  139.3210 C   0  0  2  0  0  0  0  0  0  0  0  0
    6.2980   66.5310  138.0450 C   0  0  1  0  0  0  0  0  0  0  0  0
    7.5800   66.4310  137.2200 C   0  0  0  0  0  0  0  0  0  0  0  0
    2.6370   65.6220  139.9050 O   0  0  0  0  0  0  0  0  0  0  0  0
    5.0160   64.6890  141.1230 O   0  0  0  0  0  0  0  0  0  0  0  0
    6.7510   64.3440  139.0030 O   0  0  0  0  0  0  0  0  0  0  0  0
    5.1640   66.1400  137.2540 O   0  0  0  0  0  0  0  0  0  0  0  0
    7.3040   66.6680  135.8340 O   0  0  0  0  0  0  0  0  0  0  0  0
    0.2580   68.9830  135.7220 C   0  0  2  0  0  0  0  0  0  0  0  0
    1.0000   68.1430  134.7190 C   0  0  1  0  0  0  0  0  0  0  0  0
    1.6360   67.0070  135.4880 C   0  0  2  0  0  0  0  0  0  0  0  0
    2.5730   67.4870  136.5780 C   0  0  1  0  0  0  0  0  0  0  0  0
    1.9660   68.6710  137.3530 C   0  0  1  0  0  0  0  0  0  0  0  0
    2.9770   69.4560  138.1850 C   0  0  0  0  0  0  0  0  0  0  0  0
    0.1610   68.1630  132.5250 C   0  0  0  0  0  0  0  0  0  0  0  0
   -0.0160   69.6500  132.4730 C   0  0  0  0  0  0  0  0  0  0  0  0
    0.0920   67.6380  133.7310 N   0  0  0  0  0  0  0  0  0  0  0  0
   -0.5410   69.9990  135.1030 O   0  0  0  0  0  0  0  0  0  0  0  0
    2.3440   66.1430  134.6010 O   0  0  0  0  0  0  0  0  0  0  0  0
    2.5240   66.3380  137.4450 O   0  0  0  0  0  0  0  0  0  0  0  0
    1.2770   69.5940  136.5080 O   0  0  0  0  0  0  0  0  0  0  0  0
    4.2470   68.8000  138.2470 O   0  0  0  0  0  0  0  0  0  0  0  0
    0.3770   67.4860  131.5400 O   0  0  0  0  0  0  0  0  0  0  0  0
    4.7367   65.8178  143.6192 H   0  0  0  0  0  0  0  0  0  0  0  0
    5.7884   66.8099  142.5533 H   0  0  0  0  0  0  0  0  0  0  0  0
    6.6310   65.0902  144.9263 H   0  0  0  0  0  0  0  0  0  0  0  0
    8.4555   66.7979  143.1907 H   0  0  0  0  0  0  0  0  0  0  0  0
    8.3494   63.7664  143.2600 H   0  0  0  0  0  0  0  0  0  0  0  0
   10.4880   64.9863  142.6449 H   0  0  0  0  0  0  0  0  0  0  0  0
    9.3203   63.4042  140.3223 H   0  0  0  0  0  0  0  0  0  0  0  0
   12.1301   63.5639  141.5234 H   0  0  0  0  0  0  0  0  0  0  0  0
   11.5915   64.3427  139.9969 H   0  0  0  0  0  0  0  0  0  0  0  0
   10.8313   68.1494  146.1943 H   0  0  0  0  0  0  0  0  0  0  0  0
    9.6720   67.0710  147.0426 H   0  0  0  0  0  0  0  0  0  0  0  0
    9.0891   68.1834  145.7583 H   0  0  0  0  0  0  0  0  0  0  0  0
    8.9901   64.8783  145.4163 H   0  0  0  0  0  0  0  0  0  0  0  0
    5.7741   67.2157  145.3486 H   0  0  0  0  0  0  0  0  0  0  0  0
    8.9432   65.7121  140.3496 H   0  0  0  0  0  0  0  0  0  0  0  0
    9.9820   61.5639  141.5582 H   0  0  0  0  0  0  0  0  0  0  0  0
   11.5616   61.5302  140.5426 H   0  0  0  0  0  0  0  0  0  0  0  0
    3.9904   67.2953  138.2618 H   0  0  0  0  0  0  0  0  0  0  0  0
    3.9114   64.3679  138.8818 H   0  0  0  0  0  0  0  0  0  0  0  0
    4.9414   66.6876  140.5680 H   0  0  0  0  0  0  0  0  0  0  0  0
    7.1595   66.1245  139.9647 H   0  0  0  0  0  0  0  0  0  0  0  0
    6.1650   67.5824  138.3398 H   0  0  0  0  0  0  0  0  0  0  0  0
    8.0083   65.4246  137.3369 H   0  0  0  0  0  0  0  0  0  0  0  0
    8.3009   67.1803  137.5789 H   0  0  0  0  0  0  0  0  0  0  0  0
    1.9003   65.4515  139.3300 H   0  0  0  0  0  0  0  0  0  0  0  0
    6.7986   63.8327  139.8023 H   0  0  0  0  0  0  0  0  0  0  0  0
    6.6833   66.0207  135.5207 H   0  0  0  0  0  0  0  0  0  0  0  0
   -0.3863   68.3462  136.3460 H   0  0  0  0  0  0  0  0  0  0  0  0
    1.7776   68.7439  134.2248 H   0  0  0  0  0  0  0  0  0  0  0  0
    0.8290   66.4310  135.9643 H   0  0  0  0  0  0  0  0  0  0  0  0
    3.5812   67.7231  136.2068 H   0  0  0  0  0  0  0  0  0  0  0  0
    1.2295   68.2428  138.0489 H   0  0  0  0  0  0  0  0  0  0  0  0
    2.5852   69.5678  139.2067 H   0  0  0  0  0  0  0  0  0  0  0  0
    3.1127   70.4498  137.7335 H   0  0  0  0  0  0  0  0  0  0  0  0
    0.0575   69.9917  131.4300 H   0  0  0  0  0  0  0  0  0  0  0  0
    0.7684   70.1339  133.0735 H   0  0  0  0  0  0  0  0  0  0  0  0
   -1.0038   69.9161  132.8772 H   0  0  0  0  0  0  0  0  0  0  0  0
   -0.5662   66.9173  133.9485 H   0  0  0  0  0  0  0  0  0  0  0  0
   -0.9397   70.5398  135.7747 H   0  0  0  0  0  0  0  0  0  0  0  0
    2.6763   65.3966  135.0858 H   0  0  0  0  0  0  0  0  0  0  0  0
    4.1403   67.9424  138.6415 H   0  0  0  0  0  0  0  0  0  0  0  0
  1 13  1  0  0  0  0
  1 14  2  0  0  0  0
  2  1  1  1  0  0  0
  2  3  1  0  0  0  0
  2 16  1  0  0  0  0
  3  4  1  0  0  0  0
  3 47  1  0  0  0  0
  3 48  1  0  0  0  0
  4  5  1  0  0  0  0
  4 15  1  0  0  0  0
  4 49  1  1  0  0  0
  5 12  1  0  0  0  0
  5 50  1  6  0  0  0
  6  5  1  0  0  0  0
  6  7  1  0  0  0  0
  6 51  1  1  0  0  0
  7  8  1  0  0  0  0
  7 17  1  0  0  0  0
  7 52  1  1  0  0  0
  8  9  1  0  0  0  0
  8 18  1  0  0  0  0
  8 53  1  6  0  0  0
  9 19  1  0  0  0  0
  9 54  1  0  0  0  0
  9 55  1  0  0  0  0
 10 11  1  0  0  0  0
 10 20  2  0  0  0  0
 11 56  1  0  0  0  0
 11 57  1  0  0  0  0
 11 58  1  0  0  0  0
 12 10  1  0  0  0  0
 12 59  1  0  0  0  0
 15 60  1  0  0  0  0
 16  6  1  0  0  0  0
 17 61  1  0  0  0  0
 18 62  1  0  0  0  0
 19 63  1  0  0  0  0
 21 22  1  0  0  0  0
 21 30  1  0  0  0  0
 21 64  1  1  0  0  0
 22 23  1  0  0  0  0
 22 27  1  0  0  0  0
 22 65  1  6  0  0  0
 23 24  1  0  0  0  0
 23 28  1  0  0  0  0
 23 66  1  1  0  0  0
 24 29  1  0  0  0  0
 24 67  1  1  0  0  0
 25 24  1  0  0  0  0
 25 26  1  0  0  0  0
 25 68  1  1  0  0  0
 26 31  1  0  0  0  0
 26 69  1  0  0  0  0
 26 70  1  0  0  0  0
 27 71  1  0  0  0  0
 28  2  1  0  0  0  0
 29 72  1  0  0  0  0
 30 25  1  0  0  0  0
 31 73  1  0  0  0  0
 32 41  1  0  0  0  0
 32 44  1  0  0  0  0
 32 74  1  1  0  0  0
 33 32  1  0  0  0  0
 33 34  1  0  0  0  0
 33 75  1  6  0  0  0
 34 35  1  0  0  0  0
 34 42  1  0  0  0  0
 34 76  1  1  0  0  0
 35 36  1  0  0  0  0
 35 43  1  0  0  0  0
 35 77  1  6  0  0  0
 36 37  1  0  0  0  0
 36 78  1  1  0  0  0
 37 45  1  0  0  0  0
 37 79  1  0  0  0  0
 37 80  1  0  0  0  0
 38 39  1  0  0  0  0
 38 40  1  0  0  0  0
 38 46  2  0  0  0  0
 39 81  1  0  0  0  0
 39 82  1  0  0  0  0
 39 83  1  0  0  0  0
 40 33  1  0  0  0  0
 40 84  1  0  0  0  0
 41 85  1  0  0  0  0
 42 86  1  0  0  0  0
 43 21  1  0  0  0  0
 44 36  1  0  0  0  0
 45 87  1  0  0  0  0
M  CHG  1  13  -1
M  END
