4xrq_ligand
 OpenBabel08222323353D

 59 62  0  0  1  0  0  0  0  0999 V2000
   31.1810   -0.6890   -0.2870 O   0  0  0  0  0  0  0  0  0  0  0  0
   29.9940   -0.4930   -0.0820 C   0  0  0  0  0  0  0  0  0  0  0  0
   29.0250   -1.0570   -0.8020 N   0  0  0  0  0  0  0  0  0  0  0  0
   29.2610   -1.9510   -1.9220 C   0  0  2  0  0  0  0  0  0  0  0  0
   29.3670   -1.1050   -3.1740 C   0  0  0  0  0  0  0  0  0  0  0  0
   30.2220   -1.4220   -4.1550 N   0  0  0  0  0  0  0  0  0  0  0  0
   31.0420   -2.5510   -4.0110 C   0  0  0  0  0  0  0  0  0  0  0  0
   30.6540   -3.7770   -4.5560 C   0  0  0  0  0  0  0  0  0  0  0  0
   31.4730   -4.8970   -4.4080 C   0  0  0  0  0  0  0  0  0  0  0  0
   32.6790   -4.7950   -3.7110 C   0  0  0  0  0  0  0  0  0  0  0  0
   33.0670   -3.5700   -3.1660 C   0  0  0  0  0  0  0  0  0  0  0  0
   32.2530   -2.4450   -3.3190 C   0  0  0  0  0  0  0  0  0  0  0  0
   30.3710   -0.6520   -5.3870 C   0  0  0  0  0  0  0  0  0  0  0  0
   28.6440   -0.1250   -3.2690 O   0  0  0  0  0  0  0  0  0  0  0  0
   28.0660   -2.9020   -2.0280 C   0  0  0  0  0  0  0  0  0  0  0  0
   28.0420   -3.8810   -0.8700 C   0  0  0  0  0  0  0  0  0  0  0  0
   28.7000   -5.1010   -0.9780 C   0  0  0  0  0  0  0  0  0  0  0  0
   28.6760   -5.9980    0.0890 C   0  0  0  0  0  0  0  0  0  0  0  0
   28.0070   -5.6770    1.2660 C   0  0  0  0  0  0  0  0  0  0  0  0
   27.3560   -4.4530    1.3810 C   0  0  0  0  0  0  0  0  0  0  0  0
   27.3730   -3.5640    0.3110 C   0  0  0  0  0  0  0  0  0  0  0  0
   29.5300    0.4510    1.0090 C   0  0  0  0  0  0  0  0  0  0  0  0
   30.0490    0.1200    2.3830 C   0  0  0  0  0  0  0  0  0  0  0  0
   31.3190    0.5600    2.9920 C   0  0  0  0  0  0  0  0  0  0  0  0
   32.3390    1.3430    2.4650 C   0  0  0  0  0  0  0  0  0  0  0  0
   33.4540    1.6080    3.2570 C   0  0  0  0  0  0  0  0  0  0  0  0
   33.5300    1.0870    4.5500 C   0  0  0  0  0  0  0  0  0  0  0  0
   32.5010    0.2960    5.0610 C   0  0  0  0  0  0  0  0  0  0  0  0
   31.3790    0.0250    4.2750 C   0  0  0  0  0  0  0  0  0  0  0  0
   30.2480   -0.6970    4.5140 N   0  0  0  0  0  0  0  0  0  0  0  0
   29.4050   -0.6910    3.4480 C   0  0  0  0  0  0  0  0  0  0  0  0
   28.0710   -1.3830    3.3610 C   0  0  0  0  0  0  0  0  0  0  0  0
   28.0775   -0.8522   -0.5562 H   0  0  0  0  0  0  0  0  0  0  0  0
   30.1881   -2.5236   -1.7716 H   0  0  0  0  0  0  0  0  0  0  0  0
   29.7165   -3.8585   -5.0940 H   0  0  0  0  0  0  0  0  0  0  0  0
   31.1729   -5.8473   -4.8345 H   0  0  0  0  0  0  0  0  0  0  0  0
   33.3131   -5.6663   -3.5934 H   0  0  0  0  0  0  0  0  0  0  0  0
   34.0019   -3.4914   -2.6229 H   0  0  0  0  0  0  0  0  0  0  0  0
   32.5591   -1.4922   -2.9024 H   0  0  0  0  0  0  0  0  0  0  0  0
   29.6755    0.2001   -5.3731 H   0  0  0  0  0  0  0  0  0  0  0  0
   30.1459   -1.2949   -6.2507 H   0  0  0  0  0  0  0  0  0  0  0  0
   31.4037   -0.2812   -5.4651 H   0  0  0  0  0  0  0  0  0  0  0  0
   28.1363   -3.4633   -2.9714 H   0  0  0  0  0  0  0  0  0  0  0  0
   27.1368   -2.3134   -2.0199 H   0  0  0  0  0  0  0  0  0  0  0  0
   29.2301   -5.3540   -1.8891 H   0  0  0  0  0  0  0  0  0  0  0  0
   29.1822   -6.9525    0.0010 H   0  0  0  0  0  0  0  0  0  0  0  0
   27.9931   -6.3792    2.0917 H   0  0  0  0  0  0  0  0  0  0  0  0
   26.8391   -4.1937    2.2979 H   0  0  0  0  0  0  0  0  0  0  0  0
   26.8597   -2.6131    0.3968 H   0  0  0  0  0  0  0  0  0  0  0  0
   28.4308    0.4249    1.0414 H   0  0  0  0  0  0  0  0  0  0  0  0
   29.8652    1.4663    0.7505 H   0  0  0  0  0  0  0  0  0  0  0  0
   32.2685    1.7393    1.4585 H   0  0  0  0  0  0  0  0  0  0  0  0
   34.2619    2.2182    2.8697 H   0  0  0  0  0  0  0  0  0  0  0  0
   34.3981    1.2995    5.1635 H   0  0  0  0  0  0  0  0  0  0  0  0
   32.5720   -0.1070    6.0648 H   0  0  0  0  0  0  0  0  0  0  0  0
   30.0550   -1.1890    5.3981 H   0  0  0  0  0  0  0  0  0  0  0  0
   27.6240   -1.1948    2.3737 H   0  0  0  0  0  0  0  0  0  0  0  0
   27.4046   -0.9946    4.1452 H   0  0  0  0  0  0  0  0  0  0  0  0
   28.2095   -2.4653    3.5004 H   0  0  0  0  0  0  0  0  0  0  0  0
  1  2  2  0  0  0  0
  2  3  1  0  0  0  0
  2 22  1  0  0  0  0
  3  4  1  0  0  0  0
  3 33  1  0  0  0  0
  4  5  1  0  0  0  0
  4 15  1  0  0  0  0
  4 34  1  1  0  0  0
  5  6  1  0  0  0  0
  5 14  2  0  0  0  0
  6  7  1  0  0  0  0
  6 13  1  0  0  0  0
  7  8  2  0  0  0  0
  7 12  1  0  0  0  0
  8  9  1  0  0  0  0
  8 35  1  0  0  0  0
  9 10  2  0  0  0  0
  9 36  1  0  0  0  0
 10 11  1  0  0  0  0
 10 37  1  0  0  0  0
 11 12  2  0  0  0  0
 11 38  1  0  0  0  0
 12 39  1  0  0  0  0
 13 40  1  0  0  0  0
 13 41  1  0  0  0  0
 13 42  1  0  0  0  0
 15 16  1  0  0  0  0
 15 43  1  0  0  0  0
 15 44  1  0  0  0  0
 16 17  2  0  0  0  0
 16 21  1  0  0  0  0
 17 18  1  0  0  0  0
 17 45  1  0  0  0  0
 18 19  2  0  0  0  0
 18 46  1  0  0  0  0
 19 20  1  0  0  0  0
 19 47  1  0  0  0  0
 20 21  2  0  0  0  0
 20 48  1  0  0  0  0
 21 49  1  0  0  0  0
 22 23  1  0  0  0  0
 22 50  1  0  0  0  0
 22 51  1  0  0  0  0
 23 24  1  0  0  0  0
 23 31  2  0  0  0  0
 24 25  2  0  0  0  0
 24 29  1  0  0  0  0
 25 26  1  0  0  0  0
 25 52  1  0  0  0  0
 26 27  2  0  0  0  0
 26 53  1  0  0  0  0
 27 28  1  0  0  0  0
 27 54  1  0  0  0  0
 28 29  2  0  0  0  0
 28 55  1  0  0  0  0
 29 30  1  0  0  0  0
 30 31  1  0  0  0  0
 30 56  1  0  0  0  0
 31 32  1  0  0  0  0
 32 57  1  0  0  0  0
 32 58  1  0  0  0  0
 32 59  1  0  0  0  0
M  END
