4xsz_ligand
 OpenBabel08222323353D

 56 59  0  0  0  0  0  0  0  0999 V2000
   34.9930  -96.7500   -5.7620 C   0  0  0  0  0  0  0  0  0  0  0  0
   35.2530  -95.5820   -5.1860 F   0  0  0  0  0  0  0  0  0  0  0  0
   34.6430  -97.8740   -5.0060 C   0  0  0  0  0  0  0  0  0  0  0  0
   34.3760  -99.0780   -5.6440 C   0  0  0  0  0  0  0  0  0  0  0  0
   34.4330  -99.2640   -7.0250 C   0  0  0  0  0  0  0  0  0  0  0  0
   34.7880  -98.1090   -7.7280 C   0  0  0  0  0  0  0  0  0  0  0  0
   35.0600  -96.8940   -7.1430 C   0  0  0  0  0  0  0  0  0  0  0  0
   34.1780 -100.4870   -7.8630 C   0  0  0  0  0  0  0  0  0  0  0  0
   33.5930 -100.8410   -9.1740 C   0  0  0  0  0  0  0  0  0  0  0  0
   32.9640  -99.9140  -10.2060 C   0  0  0  0  0  0  0  0  0  0  0  0
   33.1460  -99.9170  -11.5980 C   0  0  0  0  0  0  0  0  0  0  0  0
   32.5430  -99.0450  -12.4820 C   0  0  0  0  0  0  0  0  0  0  0  0
   31.6420  -98.0040  -12.1000 C   0  0  0  0  0  0  0  0  0  0  0  0
   31.0720  -97.1570  -13.0450 N   0  0  0  0  0  0  0  0  0  0  0  0
   31.4000  -96.9300  -14.4900 C   0  0  0  0  0  0  0  0  0  0  0  0
   32.8300  -96.3550  -14.8110 C   0  0  0  0  0  0  0  0  0  0  0  0
   33.4260  -97.0880  -15.9980 N   0  3  0  0  0  0  0  0  0  0  0  0
   34.7580  -96.4610  -16.3580 C   0  0  0  0  0  0  0  0  0  0  0  0
   34.7090  -95.4750  -17.5690 C   0  0  0  0  0  0  0  0  0  0  0  0
   33.4550  -94.7180  -17.6390 N   0  3  0  0  0  0  0  0  0  0  0  0
   32.2930  -95.6100  -17.8160 C   0  0  0  0  0  0  0  0  0  0  0  0
   32.4530  -96.9800  -17.1480 C   0  0  0  0  0  0  0  0  0  0  0  0
   31.4450  -97.9880  -10.6800 C   0  0  0  0  0  0  0  0  0  0  0  0
   32.0830  -98.8950   -9.8220 C   0  0  0  0  0  0  0  0  0  0  0  0
   30.5030  -96.9090  -10.0720 C   0  0  0  0  0  0  0  0  0  0  0  0
   29.3240  -97.3580   -9.6860 F   0  0  0  0  0  0  0  0  0  0  0  0
   30.9740  -96.2550   -9.0260 F   0  0  0  0  0  0  0  0  0  0  0  0
   30.2490  -95.9780  -10.9680 F   0  0  0  0  0  0  0  0  0  0  0  0
   33.7570 -102.2100   -9.2260 C   0  0  0  0  0  0  0  0  0  0  0  0
   34.3640 -102.6290   -8.0930 N   0  0  0  0  0  0  0  0  0  0  0  0
   34.6390 -101.6230   -7.2460 N   0  0  0  0  0  0  0  0  0  0  0  0
   34.5805  -97.8052   -3.9260 H   0  0  0  0  0  0  0  0  0  0  0  0
   34.1057  -99.9286   -5.0288 H   0  0  0  0  0  0  0  0  0  0  0  0
   34.8534  -98.1753   -8.8080 H   0  0  0  0  0  0  0  0  0  0  0  0
   35.3278  -96.0451   -7.7617 H   0  0  0  0  0  0  0  0  0  0  0  0
   33.8136 -100.6640  -12.0119 H   0  0  0  0  0  0  0  0  0  0  0  0
   32.7681  -99.1575  -13.5364 H   0  0  0  0  0  0  0  0  0  0  0  0
   30.2900  -96.5879  -12.6908 H   0  0  0  0  0  0  0  0  0  0  0  0
   30.6592  -96.2235  -14.8925 H   0  0  0  0  0  0  0  0  0  0  0  0
   31.3054  -97.8955  -15.0085 H   0  0  0  0  0  0  0  0  0  0  0  0
   33.4819  -96.4883  -13.9351 H   0  0  0  0  0  0  0  0  0  0  0  0
   32.7479  -95.2839  -15.0474 H   0  0  0  0  0  0  0  0  0  0  0  0
   33.5670  -98.0586  -15.7655 H   0  0  0  0  0  0  0  0  0  0  0  0
   35.4624  -97.2696  -16.6028 H   0  0  0  0  0  0  0  0  0  0  0  0
   35.1249  -95.9082  -15.4806 H   0  0  0  0  0  0  0  0  0  0  0  0
   34.8216  -96.0539  -18.4976 H   0  0  0  0  0  0  0  0  0  0  0  0
   35.5433  -94.7640  -17.4766 H   0  0  0  0  0  0  0  0  0  0  0  0
   33.5003  -94.0808  -18.4187 H   0  0  0  0  0  0  0  0  0  0  0  0
   33.3397  -94.1958  -16.7846 H   0  0  0  0  0  0  0  0  0  0  0  0
   32.1377  -95.7665  -18.8937 H   0  0  0  0  0  0  0  0  0  0  0  0
   31.4090  -95.1164  -17.3860 H   0  0  0  0  0  0  0  0  0  0  0  0
   31.4639  -97.2800  -16.7715 H   0  0  0  0  0  0  0  0  0  0  0  0
   32.7803  -97.6880  -17.9236 H   0  0  0  0  0  0  0  0  0  0  0  0
   31.8750  -98.7986   -8.7625 H   0  0  0  0  0  0  0  0  0  0  0  0
   33.4466 -102.8515  -10.0494 H   0  0  0  0  0  0  0  0  0  0  0  0
   35.0990 -101.6902   -6.3269 H   0  0  0  0  0  0  0  0  0  0  0  0
  1  2  1  0  0  0  0
  1  3  2  0  0  0  0
  1  7  1  0  0  0  0
  3  4  1  0  0  0  0
  3 32  1  0  0  0  0
  4  5  2  0  0  0  0
  4 33  1  0  0  0  0
  5  6  1  0  0  0  0
  5  8  1  0  0  0  0
  6  7  2  0  0  0  0
  6 34  1  0  0  0  0
  7 35  1  0  0  0  0
  8  9  2  0  0  0  0
  8 31  1  0  0  0  0
  9 10  1  0  0  0  0
  9 29  1  0  0  0  0
 10 11  2  0  0  0  0
 10 24  1  0  0  0  0
 11 12  1  0  0  0  0
 11 36  1  0  0  0  0
 12 13  2  0  0  0  0
 12 37  1  0  0  0  0
 13 14  1  0  0  0  0
 13 23  1  0  0  0  0
 14 15  1  0  0  0  0
 14 38  1  0  0  0  0
 15 16  1  0  0  0  0
 15 39  1  0  0  0  0
 15 40  1  0  0  0  0
 16 17  1  0  0  0  0
 16 41  1  0  0  0  0
 16 42  1  0  0  0  0
 17 18  1  0  0  0  0
 17 22  1  0  0  0  0
 17 43  1  0  0  0  0
 18 19  1  0  0  0  0
 18 44  1  0  0  0  0
 18 45  1  0  0  0  0
 19 20  1  0  0  0  0
 19 46  1  0  0  0  0
 19 47  1  0  0  0  0
 20 21  1  0  0  0  0
 20 48  1  0  0  0  0
 20 49  1  0  0  0  0
 21 22  1  0  0  0  0
 21 50  1  0  0  0  0
 21 51  1  0  0  0  0
 22 52  1  0  0  0  0
 22 53  1  0  0  0  0
 23 24  2  0  0  0  0
 23 25  1  0  0  0  0
 24 54  1  0  0  0  0
 25 26  1  0  0  0  0
 25 27  1  0  0  0  0
 25 28  1  0  0  0  0
 29 30  2  0  0  0  0
 29 55  1  0  0  0  0
 30 31  1  0  0  0  0
 31 56  1  0  0  0  0
M  CHG  2  17   1  20   1
M  END
