4xue_ligand
 OpenBabel08222323353D

 37 39  0  0  1  0  0  0  0  0999 V2000
   14.2560   -7.3820   -3.9810 C   0  0  0  0  0  0  0  0  0  0  0  0
   13.0730   -9.8070   -0.5430 C   0  0  0  0  0  0  0  0  0  0  0  0
   13.9510  -10.7650   -0.0270 C   0  0  0  0  0  0  0  0  0  0  0  0
   11.8380   -9.6630    0.1130 C   0  0  0  0  0  0  0  0  0  0  0  0
   11.4850  -10.4510    1.2160 C   0  0  0  0  0  0  0  0  0  0  0  0
   12.3880  -11.4060    1.7080 C   0  0  0  0  0  0  0  0  0  0  0  0
   13.6840   -6.7860   -2.8400 C   0  0  0  0  0  0  0  0  0  0  0  0
   13.4670   -8.9590   -1.7360 C   0  0  0  0  0  0  0  0  0  0  0  0
   16.2030  -10.8440   -7.2200 C   0  0  0  0  0  0  0  0  0  0  0  0
   14.4240   -8.7770   -3.9890 C   0  0  0  0  0  0  0  0  0  0  0  0
   15.0340   -9.5210   -5.1500 C   0  0  0  0  0  0  0  0  0  0  0  0
   16.2880   -9.1780   -5.5130 N   0  0  0  0  0  0  0  0  0  0  0  0
   16.8690   -9.8290   -6.5420 C   0  0  0  0  0  0  0  0  0  0  0  0
   14.9080  -11.1910   -6.8200 C   0  0  1  0  0  0  0  0  0  0  0  0
   14.3430  -10.5020   -5.7820 N   0  0  0  0  0  0  0  0  0  0  0  0
   14.3310  -12.1760   -7.4950 O   0  0  0  0  0  0  0  0  0  0  0  0
   16.7600  -11.5240   -8.2330 O   0  0  0  0  0  0  0  0  0  0  0  0
   12.9770  -10.8750   -5.4070 C   0  0  0  0  0  0  0  0  0  0  0  0
   14.0370   -9.5380   -2.8760 C   0  0  0  0  0  0  0  0  0  0  0  0
   13.3090   -7.5720   -1.7450 C   0  0  0  0  0  0  0  0  0  0  0  0
   13.6300  -11.5610    1.0820 C   0  0  0  0  0  0  0  0  0  0  0  0
   14.5586   -6.7803   -4.8304 H   0  0  0  0  0  0  0  0  0  0  0  0
   14.9163  -10.8974   -0.5021 H   0  0  0  0  0  0  0  0  0  0  0  0
   11.1366   -8.9186   -0.2461 H   0  0  0  0  0  0  0  0  0  0  0  0
   10.5175  -10.3236    1.6880 H   0  0  0  0  0  0  0  0  0  0  0  0
   12.1262  -12.0173    2.5641 H   0  0  0  0  0  0  0  0  0  0  0  0
   13.5336   -5.7129   -2.8102 H   0  0  0  0  0  0  0  0  0  0  0  0
   17.8777   -9.5546   -6.8471 H   0  0  0  0  0  0  0  0  0  0  0  0
   15.3023  -11.9235   -6.1004 H   0  0  0  0  0  0  0  0  0  0  0  0
   14.9263  -12.4901   -8.1655 H   0  0  0  0  0  0  0  0  0  0  0  0
   16.2273  -11.4211   -9.0128 H   0  0  0  0  0  0  0  0  0  0  0  0
   12.6440  -10.2496   -4.5656 H   0  0  0  0  0  0  0  0  0  0  0  0
   12.9548  -11.9334   -5.1083 H   0  0  0  0  0  0  0  0  0  0  0  0
   12.3064  -10.7220   -6.2654 H   0  0  0  0  0  0  0  0  0  0  0  0
   14.1844  -10.6117   -2.8995 H   0  0  0  0  0  0  0  0  0  0  0  0
   12.8815   -7.0878   -0.8745 H   0  0  0  0  0  0  0  0  0  0  0  0
   14.3397  -12.2920    1.4522 H   0  0  0  0  0  0  0  0  0  0  0  0
  1  7  2  0  0  0  0
  1 22  1  0  0  0  0
  2  3  2  0  0  0  0
  2  4  1  0  0  0  0
  3 21  1  0  0  0  0
  3 23  1  0  0  0  0
  4  5  2  0  0  0  0
  4 24  1  0  0  0  0
  5  6  1  0  0  0  0
  5 25  1  0  0  0  0
  6 26  1  0  0  0  0
  7 20  1  0  0  0  0
  7 27  1  0  0  0  0
  8  2  1  0  0  0  0
  8 20  2  0  0  0  0
  9 14  1  0  0  0  0
  9 17  1  0  0  0  0
 10  1  1  0  0  0  0
 10 19  2  0  0  0  0
 11 10  1  0  0  0  0
 11 15  1  0  0  0  0
 12 11  2  0  0  0  0
 12 13  1  0  0  0  0
 13  9  2  0  0  0  0
 13 28  1  0  0  0  0
 14 15  1  0  0  0  0
 14 16  1  0  0  0  0
 14 29  1  1  0  0  0
 15 18  1  0  0  0  0
 16 30  1  0  0  0  0
 17 31  1  0  0  0  0
 18 32  1  0  0  0  0
 18 33  1  0  0  0  0
 18 34  1  0  0  0  0
 19  8  1  0  0  0  0
 19 35  1  0  0  0  0
 20 36  1  0  0  0  0
 21  6  2  0  0  0  0
 21 37  1  0  0  0  0
M  END
