4xum_ligand
 OpenBabel08222323353D

 40 42  0  0  0  0  0  0  0  0999 V2000
   21.0970    7.7640   16.1590 C   0  0  0  0  0  0  0  0  0  0  0  0
   20.0860    7.5080   17.0560 C   0  0  0  0  0  0  0  0  0  0  0  0
   19.2950    6.3380   16.9030 C   0  0  0  0  0  0  0  0  0  0  0  0
   19.5300    5.4670   15.8690 C   0  0  0  0  0  0  0  0  0  0  0  0
   20.5350    5.7090   14.9590 C   0  0  0  0  0  0  0  0  0  0  0  0
   21.3120    6.8580   15.1180 C   0  0  0  0  0  0  0  0  0  0  0  0
   17.2960    4.7570   15.5040 C   0  0  0  0  0  0  0  0  0  0  0  0
   20.0790    8.5330   17.9810 C   0  0  0  0  0  0  0  0  0  0  0  0
   21.0920    9.4310   17.6270 C   0  0  0  0  0  0  0  0  0  0  0  0
   22.8580    9.6990   15.9310 C   0  0  0  0  0  0  0  0  0  0  0  0
   23.5680    9.2810   14.6600 C   0  0  0  0  0  0  0  0  0  0  0  0
   24.9470    9.2420   14.5090 C   0  0  0  0  0  0  0  0  0  0  0  0
   25.4880    8.8840   13.2670 C   0  0  0  0  0  0  0  0  0  0  0  0
   24.6860    8.5970   12.2100 C   0  0  0  0  0  0  0  0  0  0  0  0
   23.2990    8.6710   12.3560 C   0  0  0  0  0  0  0  0  0  0  0  0
   22.7780    9.0470   13.5860 C   0  0  0  0  0  0  0  0  0  0  0  0
   21.1450   10.5690   18.5710 C   0  0  0  0  0  0  0  0  0  0  0  0
   19.0260    8.5580   19.1380 C   0  0  0  0  0  0  0  0  0  0  0  0
   19.0420    7.3780   20.0210 C   0  0  0  0  0  0  0  0  0  0  0  0
   21.7330    8.9880   16.5330 N   0  0  0  0  0  0  0  0  0  0  0  0
   18.5990    4.4150   15.9760 O   0  0  0  0  0  0  0  0  0  0  0  0
   23.1960   10.6970   16.4100 O   0  0  0  0  0  0  0  0  0  0  0  0
   17.9290    6.8770   20.3490 O   0  5  0  0  0  0  0  0  0  0  0  0
   20.1240    6.8980   20.4330 O   0  0  0  0  0  0  0  0  0  0  0  0
   25.3440    8.1370   10.6390 Cl  0  0  0  0  0  0  0  0  0  0  0  0
   18.4989    6.1315   17.6091 H   0  0  0  0  0  0  0  0  0  0  0  0
   20.7183    5.0240   14.1391 H   0  0  0  0  0  0  0  0  0  0  0  0
   22.1090    7.0535   14.4097 H   0  0  0  0  0  0  0  0  0  0  0  0
   16.6260    3.8920   15.6180 H   0  0  0  0  0  0  0  0  0  0  0  0
   17.3529    5.0392   14.4424 H   0  0  0  0  0  0  0  0  0  0  0  0
   16.9049    5.6032   16.0879 H   0  0  0  0  0  0  0  0  0  0  0  0
   25.5974    9.4854   15.3414 H   0  0  0  0  0  0  0  0  0  0  0  0
   26.5644    8.8354   13.1483 H   0  0  0  0  0  0  0  0  0  0  0  0
   22.6425    8.4393   11.5251 H   0  0  0  0  0  0  0  0  0  0  0  0
   21.7046    9.1568   13.6900 H   0  0  0  0  0  0  0  0  0  0  0  0
   20.3586   10.4517   19.3312 H   0  0  0  0  0  0  0  0  0  0  0  0
   20.9867   11.5088   18.0217 H   0  0  0  0  0  0  0  0  0  0  0  0
   22.1290   10.5926   19.0620 H   0  0  0  0  0  0  0  0  0  0  0  0
   18.0255    8.6331   18.6871 H   0  0  0  0  0  0  0  0  0  0  0  0
   19.2180    9.4483   19.7549 H   0  0  0  0  0  0  0  0  0  0  0  0
  1  2  2  0  0  0  0
  1  6  1  0  0  0  0
  2  3  1  0  0  0  0
  3  4  2  0  0  0  0
  3 26  1  0  0  0  0
  4 21  1  0  0  0  0
  5  4  1  0  0  0  0
  5 27  1  0  0  0  0
  6  5  2  0  0  0  0
  6 28  1  0  0  0  0
  7 29  1  0  0  0  0
  7 30  1  0  0  0  0
  7 31  1  0  0  0  0
  8  2  1  0  0  0  0
  8 18  1  0  0  0  0
  9  8  2  0  0  0  0
  9 17  1  0  0  0  0
 10 11  1  0  0  0  0
 10 20  1  0  0  0  0
 10 22  2  0  0  0  0
 11 12  2  0  0  0  0
 11 16  1  0  0  0  0
 12 13  1  0  0  0  0
 12 32  1  0  0  0  0
 13 14  2  0  0  0  0
 13 33  1  0  0  0  0
 14 15  1  0  0  0  0
 14 25  1  0  0  0  0
 15 16  2  0  0  0  0
 15 34  1  0  0  0  0
 16 35  1  0  0  0  0
 17 36  1  0  0  0  0
 17 37  1  0  0  0  0
 17 38  1  0  0  0  0
 18 19  1  0  0  0  0
 18 39  1  0  0  0  0
 18 40  1  0  0  0  0
 19 23  1  0  0  0  0
 19 24  2  0  0  0  0
 20  1  1  0  0  0  0
 20  9  1  0  0  0  0
 21  7  1  0  0  0  0
M  CHG  1  23  -1
M  END
