4xuz_ligand
 OpenBabel08222323353D

 35 36  0  0  1  0  0  0  0  0999 V2000
   44.4940   48.4720   10.8510 C   0  0  0  0  0  0  0  0  0  0  0  0
   42.1420   47.6710   11.0480 C   0  0  0  0  0  0  0  0  0  0  0  0
   43.8470   49.0820   11.9340 C   0  0  0  0  0  0  0  0  0  0  0  0
   40.1070   46.4530   11.9160 C   0  0  0  0  0  0  0  0  0  0  0  0
   37.5530   44.9670   12.7140 C   0  0  0  0  0  0  0  0  0  0  0  0
   37.0070   44.2760   11.4600 C   0  0  0  0  0  0  0  0  0  0  0  0
   37.1380   42.7900   11.5350 C   0  0  1  0  0  0  0  0  0  0  0  0
   36.5670   42.0770   10.3430 C   0  0  0  0  0  0  0  0  0  0  0  0
   36.7760   39.8260    9.5450 O   0  5  0  0  0  0  0  0  0  0  0  0
   36.4770   40.5630   10.5270 C   0  0  0  0  0  0  0  0  0  0  0  0
   36.0730   40.1000   11.6020 O   0  0  0  0  0  0  0  0  0  0  0  0
   38.3890   42.3370   11.9120 O   0  0  0  0  0  0  0  0  0  0  0  0
   39.1070   42.9480   12.9600 B   0  0  0  0  0  0  0  0  0  0  0  0
   40.5210   42.5540   12.8440 O   0  0  0  0  0  0  0  0  0  0  0  0
   38.9420   44.5420   12.9080 C   0  0  1  0  0  0  0  0  0  0  0  0
   39.8550   45.1430   12.0080 N   0  0  0  0  0  0  0  0  0  0  0  0
   39.7210   47.2800   12.7150 O   0  0  0  0  0  0  0  0  0  0  0  0
   40.9040   46.8840   10.6750 C   0  0  0  0  0  0  0  0  0  0  0  0
   43.4760   47.4340   10.0540 S   0  0  0  0  0  0  0  0  0  0  0  0
   42.4610   48.6310   12.0650 C   0  0  0  0  0  0  0  0  0  0  0  0
   45.5299   48.6557   10.5697 H   0  0  0  0  0  0  0  0  0  0  0  0
   44.3188   49.8046   12.5982 H   0  0  0  0  0  0  0  0  0  0  0  0
   36.9509   44.6797   13.5886 H   0  0  0  0  0  0  0  0  0  0  0  0
   37.5131   46.0585   12.5840 H   0  0  0  0  0  0  0  0  0  0  0  0
   37.5657   44.6375   10.5841 H   0  0  0  0  0  0  0  0  0  0  0  0
   35.9433   44.5330   11.3481 H   0  0  0  0  0  0  0  0  0  0  0  0
   36.4822   42.5006   12.3694 H   0  0  0  0  0  0  0  0  0  0  0  0
   37.2069   42.2850    9.4728 H   0  0  0  0  0  0  0  0  0  0  0  0
   35.5553   42.4661   10.1556 H   0  0  0  0  0  0  0  0  0  0  0  0
   40.8609   42.8417   12.0049 H   0  0  0  0  0  0  0  0  0  0  0  0
   39.2441   44.8018   13.9333 H   0  0  0  0  0  0  0  0  0  0  0  0
   40.3536   44.5364   11.3887 H   0  0  0  0  0  0  0  0  0  0  0  0
   41.2075   45.9859   10.1171 H   0  0  0  0  0  0  0  0  0  0  0  0
   40.2615   47.5109   10.0392 H   0  0  0  0  0  0  0  0  0  0  0  0
   41.7670   48.9768   12.8297 H   0  0  0  0  0  0  0  0  0  0  0  0
  1 21  1  0  0  0  0
  2 19  1  0  0  0  0
  2 20  2  0  0  0  0
  3  1  2  0  0  0  0
  3 22  1  0  0  0  0
  4 17  2  0  0  0  0
  4 18  1  0  0  0  0
  5  6  1  0  0  0  0
  5 23  1  0  0  0  0
  5 24  1  0  0  0  0
  6  7  1  0  0  0  0
  6 25  1  0  0  0  0
  6 26  1  0  0  0  0
  7  8  1  0  0  0  0
  7 27  1  1  0  0  0
  8 10  1  0  0  0  0
  8 28  1  0  0  0  0
  8 29  1  0  0  0  0
 10  9  1  0  0  0  0
 10 11  2  0  0  0  0
 12  7  1  0  0  0  0
 13 12  1  0  0  0  0
 13 14  1  0  0  0  0
 14 30  1  0  0  0  0
 15  5  1  0  0  0  0
 15 13  1  0  0  0  0
 15 16  1  0  0  0  0
 15 31  1  1  0  0  0
 16  4  1  0  0  0  0
 16 32  1  0  0  0  0
 18  2  1  0  0  0  0
 18 33  1  0  0  0  0
 18 34  1  0  0  0  0
 19  1  1  0  0  0  0
 20  3  1  0  0  0  0
 20 35  1  0  0  0  0
M  CHG  1   9  -1
M  END
