4xv3_ligand
 OpenBabel08222323353D

 56 58  0  0  0  0  0  0  0  0999 V2000
   -5.2790   -3.6290  -16.5960 C   0  0  0  0  0  0  0  0  0  0  0  0
   -5.6230   -1.8970  -18.6680 C   0  0  0  0  0  0  0  0  0  0  0  0
   -4.7080   -4.0590  -17.9330 C   0  0  0  0  0  0  0  0  0  0  0  0
   -5.3330   -4.8930  -21.1000 O   0  0  0  0  0  0  0  0  0  0  0  0
   -4.9460   -2.4520  -21.4730 O   0  0  0  0  0  0  0  0  0  0  0  0
   -5.4020   -3.3240  -19.0430 N   0  0  0  0  0  0  0  0  0  0  0  0
   -4.7860   -3.6320  -20.6430 S   0  0  0  0  0  0  0  0  0  0  0  0
    6.5380   -1.5380  -19.1610 N   0  0  0  0  0  0  0  0  0  0  0  0
    5.1560   -1.6210  -19.1640 C   0  0  0  0  0  0  0  0  0  0  0  0
    4.5390   -2.1710  -20.2400 N   0  0  0  0  0  0  0  0  0  0  0  0
    3.1830   -2.2310  -20.2200 C   0  0  0  0  0  0  0  0  0  0  0  0
    2.5530   -2.8440  -21.3920 C   0  0  0  0  0  0  0  0  0  0  0  0
    1.2480   -2.8890  -21.8660 C   0  0  0  0  0  0  0  0  0  0  0  0
    0.0340   -2.3210  -21.3400 C   0  0  0  0  0  0  0  0  0  0  0  0
   -0.2180   -0.9500  -21.2180 C   0  0  0  0  0  0  0  0  0  0  0  0
   -1.4560   -0.5280  -20.7250 C   0  0  0  0  0  0  0  0  0  0  0  0
   -2.4360   -1.4590  -20.3730 C   0  0  0  0  0  0  0  0  0  0  0  0
   -2.1830   -2.8250  -20.5240 C   0  0  0  0  0  0  0  0  0  0  0  0
   -3.1320   -3.8560  -20.1830 N   0  0  0  0  0  0  0  0  0  0  0  0
   -0.9540   -3.2370  -21.0060 C   0  0  0  0  0  0  0  0  0  0  0  0
   -0.7170   -4.5500  -21.1400 F   0  0  0  0  0  0  0  0  0  0  0  0
    1.0360   -3.5980  -23.0230 N   0  0  0  0  0  0  0  0  0  0  0  0
    2.1480   -4.1040  -23.4750 C   0  0  0  0  0  0  0  0  0  0  0  0
    2.1810   -4.9420  -24.7450 C   0  0  0  0  0  0  0  0  0  0  0  0
    2.7750   -4.1670  -25.9370 C   0  0  0  0  0  0  0  0  0  0  0  0
    0.7270   -5.3300  -25.0990 C   0  0  0  0  0  0  0  0  0  0  0  0
    2.9550   -6.2460  -24.4840 C   0  0  0  0  0  0  0  0  0  0  0  0
    3.5260   -3.7510  -22.4960 S   0  0  0  0  0  0  0  0  0  0  0  0
    2.4390   -1.7750  -19.1500 C   0  0  0  0  0  0  0  0  0  0  0  0
    3.1530   -1.2350  -18.1070 C   0  0  0  0  0  0  0  0  0  0  0  0
    4.4980   -1.1450  -18.0860 N   0  0  0  0  0  0  0  0  0  0  0  0
   -4.7667   -4.1707  -15.7872 H   0  0  0  0  0  0  0  0  0  0  0  0
   -6.3546   -3.8572  -16.5662 H   0  0  0  0  0  0  0  0  0  0  0  0
   -5.1299   -2.5471  -16.4644 H   0  0  0  0  0  0  0  0  0  0  0  0
   -6.0106   -1.8439  -17.6399 H   0  0  0  0  0  0  0  0  0  0  0  0
   -6.3507   -1.4450  -19.3580 H   0  0  0  0  0  0  0  0  0  0  0  0
   -4.6707   -1.3500  -18.7295 H   0  0  0  0  0  0  0  0  0  0  0  0
   -4.8570   -5.1411  -18.0626 H   0  0  0  0  0  0  0  0  0  0  0  0
   -3.6323   -3.8310  -17.9609 H   0  0  0  0  0  0  0  0  0  0  0  0
    7.0768   -1.8902  -19.9651 H   0  0  0  0  0  0  0  0  0  0  0  0
    7.0273   -1.1240  -18.3547 H   0  0  0  0  0  0  0  0  0  0  0  0
    0.5364   -0.2252  -21.5019 H   0  0  0  0  0  0  0  0  0  0  0  0
   -1.6574    0.5314  -20.6148 H   0  0  0  0  0  0  0  0  0  0  0  0
   -3.3902   -1.1228  -19.9837 H   0  0  0  0  0  0  0  0  0  0  0  0
   -2.8423   -4.6786  -19.6937 H   0  0  0  0  0  0  0  0  0  0  0  0
    2.7779   -4.8114  -26.8285 H   0  0  0  0  0  0  0  0  0  0  0  0
    3.8056   -3.8639  -25.7004 H   0  0  0  0  0  0  0  0  0  0  0  0
    2.1655   -3.2725  -26.1332 H   0  0  0  0  0  0  0  0  0  0  0  0
    0.2814   -5.8856  -24.2607 H   0  0  0  0  0  0  0  0  0  0  0  0
    0.7249   -5.9614  -25.9997 H   0  0  0  0  0  0  0  0  0  0  0  0
    0.1401   -4.4191  -25.2883 H   0  0  0  0  0  0  0  0  0  0  0  0
    3.9981   -6.0083  -24.2281 H   0  0  0  0  0  0  0  0  0  0  0  0
    2.9329   -6.8727  -25.3877 H   0  0  0  0  0  0  0  0  0  0  0  0
    2.4874   -6.7892  -23.6496 H   0  0  0  0  0  0  0  0  0  0  0  0
    1.3570   -1.8390  -19.1335 H   0  0  0  0  0  0  0  0  0  0  0  0
    2.6027   -0.8597  -17.2517 H   0  0  0  0  0  0  0  0  0  0  0  0
  1 32  1  0  0  0  0
  1 33  1  0  0  0  0
  1 34  1  0  0  0  0
  2 35  1  0  0  0  0
  2 36  1  0  0  0  0
  2 37  1  0  0  0  0
  3  1  1  0  0  0  0
  3 38  1  0  0  0  0
  3 39  1  0  0  0  0
  6  2  1  0  0  0  0
  6  3  1  0  0  0  0
  7  4  2  0  0  0  0
  7  5  2  0  0  0  0
  7  6  1  0  0  0  0
  8 40  1  0  0  0  0
  8 41  1  0  0  0  0
  9  8  1  0  0  0  0
  9 31  1  0  0  0  0
 10  9  2  0  0  0  0
 11 10  1  0  0  0  0
 11 29  2  0  0  0  0
 12 11  1  0  0  0  0
 12 28  1  0  0  0  0
 13 12  2  0  0  0  0
 13 22  1  0  0  0  0
 14 13  1  0  0  0  0
 14 20  1  0  0  0  0
 15 14  2  0  0  0  0
 15 42  1  0  0  0  0
 16 15  1  0  0  0  0
 16 43  1  0  0  0  0
 17 16  2  0  0  0  0
 17 44  1  0  0  0  0
 18 17  1  0  0  0  0
 18 19  1  0  0  0  0
 18 20  2  0  0  0  0
 19  7  1  0  0  0  0
 19 45  1  0  0  0  0
 20 21  1  0  0  0  0
 22 23  2  0  0  0  0
 23 24  1  0  0  0  0
 23 28  1  0  0  0  0
 24 25  1  0  0  0  0
 24 26  1  0  0  0  0
 24 27  1  0  0  0  0
 25 46  1  0  0  0  0
 25 47  1  0  0  0  0
 25 48  1  0  0  0  0
 26 49  1  0  0  0  0
 26 50  1  0  0  0  0
 26 51  1  0  0  0  0
 27 52  1  0  0  0  0
 27 53  1  0  0  0  0
 27 54  1  0  0  0  0
 29 30  1  0  0  0  0
 29 55  1  0  0  0  0
 30 31  2  0  0  0  0
 30 56  1  0  0  0  0
M  END
