4xx4_ligand
 OpenBabel08222323353D

 62 65  0  0  1  0  0  0  0  0999 V2000
   37.3340   57.0100   46.9510 C   0  0  0  0  0  0  0  0  0  0  0  0
   37.5060   55.6450   46.8470 C   0  0  0  0  0  0  0  0  0  0  0  0
   38.1970   54.9750   47.8320 C   0  0  0  0  0  0  0  0  0  0  0  0
   38.7270   55.6680   48.8980 C   0  0  0  0  0  0  0  0  0  0  0  0
   34.0490   57.4610   45.4390 C   0  0  0  0  0  0  0  0  0  0  0  0
   38.5370   57.0310   48.9990 C   0  0  0  0  0  0  0  0  0  0  0  0
   37.8330   57.7250   48.0300 C   0  0  0  0  0  0  0  0  0  0  0  0
   36.9930   59.9190   46.9920 C   0  0  0  0  0  0  0  0  0  0  0  0
   37.6340   59.2180   48.1830 C   0  0  2  0  0  0  0  0  0  0  0  0
   39.3020   60.3730   46.9610 C   0  0  0  0  0  0  0  0  0  0  0  0
   34.6250   59.8970   42.2150 C   0  0  0  0  0  0  0  0  0  0  0  0
   32.8470   59.2580   43.9800 C   0  0  2  0  0  0  0  0  0  0  0  0
   33.6260   58.8880   42.7280 C   0  0  0  0  0  0  0  0  0  0  0  0
   31.5410   58.5040   43.8700 C   0  0  0  0  0  0  0  0  0  0  0  0
   38.8990   62.8500   43.5520 C   0  0  0  0  0  0  0  0  0  0  0  0
   38.9870   62.1190   44.7140 C   0  0  0  0  0  0  0  0  0  0  0  0
   37.9250   61.3440   45.1440 C   0  0  0  0  0  0  0  0  0  0  0  0
   36.7460   61.3460   44.4060 C   0  0  0  0  0  0  0  0  0  0  0  0
   32.9860   59.3860   46.5720 C   0  0  0  0  0  0  0  0  0  0  0  0
   32.4980   60.6680   43.9140 N   0  0  0  0  0  0  0  0  0  0  0  0
   34.3910   61.2040   42.6040 N   0  0  0  0  0  0  0  0  0  0  0  0
   33.1410   61.5690   43.0890 C   0  0  1  0  0  3  0  0  0  0  0  0
   32.6190   62.6980   42.7400 N   0  0  0  0  0  0  0  0  0  0  0  0
   35.5520   59.5310   41.5050 O   0  0  0  0  0  0  0  0  0  0  0  0
   35.4170   62.1960   42.3830 C   0  0  0  0  0  0  0  0  0  0  0  0
   33.6230   58.9220   45.2760 C   0  0  0  0  0  0  0  0  0  0  0  0
   36.6390   62.0960   43.2420 C   0  0  0  0  0  0  0  0  0  0  0  0
   37.7280   62.8280   42.8190 C   0  0  0  0  0  0  0  0  0  0  0  0
   38.0810   60.6130   46.3510 N   0  0  0  0  0  0  0  0  0  0  0  0
   38.9920   59.8600   48.3270 C   0  0  0  0  0  0  0  0  0  0  0  0
   40.4510   60.4770   46.5320 O   0  0  0  0  0  0  0  0  0  0  0  0
   36.7960   57.5364   46.1709 H   0  0  0  0  0  0  0  0  0  0  0  0
   37.1013   55.1053   45.9985 H   0  0  0  0  0  0  0  0  0  0  0  0
   38.3241   53.9004   47.7683 H   0  0  0  0  0  0  0  0  0  0  0  0
   39.2937   55.1423   49.6580 H   0  0  0  0  0  0  0  0  0  0  0  0
   34.5891   57.3405   46.3897 H   0  0  0  0  0  0  0  0  0  0  0  0
   34.7068   57.1756   44.6049 H   0  0  0  0  0  0  0  0  0  0  0  0
   33.1573   56.8169   45.4397 H   0  0  0  0  0  0  0  0  0  0  0  0
   38.9448   57.5658   49.8491 H   0  0  0  0  0  0  0  0  0  0  0  0
   36.2231   60.6294   47.3276 H   0  0  0  0  0  0  0  0  0  0  0  0
   36.5421   59.1863   46.3065 H   0  0  0  0  0  0  0  0  0  0  0  0
   37.0226   59.3988   49.0794 H   0  0  0  0  0  0  0  0  0  0  0  0
   34.1740   57.9585   42.9416 H   0  0  0  0  0  0  0  0  0  0  0  0
   32.8960   58.7071   41.9253 H   0  0  0  0  0  0  0  0  0  0  0  0
   30.9163   58.7227   44.7486 H   0  0  0  0  0  0  0  0  0  0  0  0
   31.7439   57.4239   43.8241 H   0  0  0  0  0  0  0  0  0  0  0  0
   31.0126   58.8170   42.9574 H   0  0  0  0  0  0  0  0  0  0  0  0
   39.7432   63.4397   43.2135 H   0  0  0  0  0  0  0  0  0  0  0  0
   39.8989   62.1507   45.2993 H   0  0  0  0  0  0  0  0  0  0  0  0
   35.9015   60.7558   44.7430 H   0  0  0  0  0  0  0  0  0  0  0  0
   33.6233   59.0928   47.4193 H   0  0  0  0  0  0  0  0  0  0  0  0
   31.9950   58.9211   46.6805 H   0  0  0  0  0  0  0  0  0  0  0  0
   32.8779   60.4805   46.5562 H   0  0  0  0  0  0  0  0  0  0  0  0
   31.7332   61.0116   44.5123 H   0  0  0  0  0  0  0  0  0  0  0  0
   31.6925   62.9698   43.0987 H   0  0  0  0  0  0  0  0  0  0  0  0
   33.1293   63.3263   42.1030 H   0  0  0  0  0  0  0  0  0  0  0  0
   34.9679   63.1853   42.5548 H   0  0  0  0  0  0  0  0  0  0  0  0
   35.7385   62.1163   41.3341 H   0  0  0  0  0  0  0  0  0  0  0  0
   34.5581   59.4942   45.1856 H   0  0  0  0  0  0  0  0  0  0  0  0
   37.6646   63.3949   41.8973 H   0  0  0  0  0  0  0  0  0  0  0  0
   39.7414   59.1202   48.6450 H   0  0  0  0  0  0  0  0  0  0  0  0
   38.9585   60.6842   49.0547 H   0  0  0  0  0  0  0  0  0  0  0  0
  1  2  2  0  0  0  0
  1 32  1  0  0  0  0
  2  3  1  0  0  0  0
  2 33  1  0  0  0  0
  3 34  1  0  0  0  0
  4  3  2  0  0  0  0
  4 35  1  0  0  0  0
  5 36  1  0  0  0  0
  5 37  1  0  0  0  0
  5 38  1  0  0  0  0
  6  4  1  0  0  0  0
  6 39  1  0  0  0  0
  7  1  1  0  0  0  0
  7  6  2  0  0  0  0
  8  9  1  0  0  0  0
  8 40  1  0  0  0  0
  8 41  1  0  0  0  0
  9  7  1  0  0  0  0
  9 42  1  1  0  0  0
 10 30  1  0  0  0  0
 10 31  2  0  0  0  0
 11 13  1  0  0  0  0
 11 24  2  0  0  0  0
 12 14  1  1  0  0  0
 12 26  1  0  0  0  0
 13 12  1  0  0  0  0
 13 43  1  0  0  0  0
 13 44  1  0  0  0  0
 14 45  1  0  0  0  0
 14 46  1  0  0  0  0
 14 47  1  0  0  0  0
 15 28  1  0  0  0  0
 15 48  1  0  0  0  0
 16 15  2  0  0  0  0
 16 49  1  0  0  0  0
 17 16  1  0  0  0  0
 17 29  1  0  0  0  0
 18 17  2  0  0  0  0
 18 50  1  0  0  0  0
 19 51  1  0  0  0  0
 19 52  1  0  0  0  0
 19 53  1  0  0  0  0
 20 12  1  0  0  0  0
 20 54  1  0  0  0  0
 21 11  1  0  0  0  0
 21 22  1  0  0  0  0
 22 20  1  0  0  0  0
 22 23  1  6  0  0  0
 23 55  1  0  0  0  0
 23 56  1  0  0  0  0
 25 21  1  0  0  0  0
 25 27  1  0  0  0  0
 25 57  1  0  0  0  0
 25 58  1  0  0  0  0
 26  5  1  0  0  0  0
 26 19  1  0  0  0  0
 26 59  1  0  0  0  0
 27 18  1  0  0  0  0
 27 28  2  0  0  0  0
 28 60  1  0  0  0  0
 29  8  1  0  0  0  0
 29 10  1  0  0  0  0
 30  9  1  0  0  0  0
 30 61  1  0  0  0  0
 30 62  1  0  0  0  0
M  END
