4xyc_ligand
 OpenBabel08222323353D

 36 40  0  0  0  0  0  0  0  0999 V2000
  157.9920   33.8270    4.5710 O   0  0  0  0  0  0  0  0  0  0  0  0
  157.9750   34.1350    5.7810 C   0  0  0  0  0  0  0  0  0  0  0  0
  157.7040   35.5590    6.1600 C   0  0  0  0  0  0  0  0  0  0  0  0
  157.4550   36.7020    5.4750 N   0  0  0  0  0  0  0  0  0  0  0  0
  157.2890   37.7240    6.3640 C   0  0  0  0  0  0  0  0  0  0  0  0
  157.4420   37.2230    7.6470 C   0  0  0  0  0  0  0  0  0  0  0  0
  157.6850   35.9270    7.4380 N   0  0  0  0  0  0  0  0  0  0  0  0
  157.9120   35.0030    8.3850 C   0  0  0  0  0  0  0  0  0  0  0  0
  158.1990   33.1990    6.7330 N   0  0  0  0  0  0  0  0  0  0  0  0
  158.1720   33.5990    8.0130 C   0  0  0  0  0  0  0  0  0  0  0  0
  158.3600   32.8990    9.1890 C   0  0  0  0  0  0  0  0  0  0  0  0
  158.6340   31.5450    9.3730 C   0  0  0  0  0  0  0  0  0  0  0  0
  158.7790   31.0910   10.6870 C   0  0  0  0  0  0  0  0  0  0  0  0
  158.6490   31.9820   11.7680 C   0  0  0  0  0  0  0  0  0  0  0  0
  158.3820   33.3520   11.5720 C   0  0  0  0  0  0  0  0  0  0  0  0
  158.2290   33.7880   10.2510 C   0  0  0  0  0  0  0  0  0  0  0  0
  157.9400   35.1690    9.8330 C   0  0  0  0  0  0  0  0  0  0  0  0
  158.1940   34.3140   12.7180 C   0  0  0  0  0  0  0  0  0  0  0  0
  157.2950   33.9750   13.7370 C   0  0  0  0  0  0  0  0  0  0  0  0
  157.0580   34.8410   14.8110 C   0  0  0  0  0  0  0  0  0  0  0  0
  157.7010   36.0750   14.8750 C   0  0  0  0  0  0  0  0  0  0  0  0
  158.5810   36.4360   13.8580 C   0  0  0  0  0  0  0  0  0  0  0  0
  158.8240   35.5650   12.7870 C   0  0  0  0  0  0  0  0  0  0  0  0
  157.0725   38.7601    6.1080 H   0  0  0  0  0  0  0  0  0  0  0  0
  157.3793   37.7563    8.5944 H   0  0  0  0  0  0  0  0  0  0  0  0
  158.3779   32.2453    6.4911 H   0  0  0  0  0  0  0  0  0  0  0  0
  158.7309   30.8703    8.5301 H   0  0  0  0  0  0  0  0  0  0  0  0
  158.9931   30.0450   10.8745 H   0  0  0  0  0  0  0  0  0  0  0  0
  158.7571   31.6048   12.7785 H   0  0  0  0  0  0  0  0  0  0  0  0
  156.9717   35.5174   10.2214 H   0  0  0  0  0  0  0  0  0  0  0  0
  158.7327   35.8636   10.1477 H   0  0  0  0  0  0  0  0  0  0  0  0
  156.7737   33.0256   13.6933 H   0  0  0  0  0  0  0  0  0  0  0  0
  156.3705   34.5498   15.5969 H   0  0  0  0  0  0  0  0  0  0  0  0
  157.5185   36.7462   15.7065 H   0  0  0  0  0  0  0  0  0  0  0  0
  159.0814   37.3969   13.8948 H   0  0  0  0  0  0  0  0  0  0  0  0
  159.5086   35.8626   12.0010 H   0  0  0  0  0  0  0  0  0  0  0  0
  1  2  2  0  0  0  0
  2  3  1  0  0  0  0
  2  9  1  0  0  0  0
  3  4  2  0  0  0  0
  3  7  1  0  0  0  0
  4  5  1  0  0  0  0
  5  6  2  0  0  0  0
  5 24  1  0  0  0  0
  6  7  1  0  0  0  0
  6 25  1  0  0  0  0
  7  8  1  0  0  0  0
  8 10  2  0  0  0  0
  8 17  1  0  0  0  0
  9 10  1  0  0  0  0
  9 26  1  0  0  0  0
 10 11  1  0  0  0  0
 11 12  2  0  0  0  0
 11 16  1  0  0  0  0
 12 13  1  0  0  0  0
 12 27  1  0  0  0  0
 13 14  2  0  0  0  0
 13 28  1  0  0  0  0
 14 15  1  0  0  0  0
 14 29  1  0  0  0  0
 15 16  2  0  0  0  0
 15 18  1  0  0  0  0
 16 17  1  0  0  0  0
 17 30  1  0  0  0  0
 17 31  1  0  0  0  0
 18 19  2  0  0  0  0
 18 23  1  0  0  0  0
 19 20  1  0  0  0  0
 19 32  1  0  0  0  0
 20 21  2  0  0  0  0
 20 33  1  0  0  0  0
 21 22  1  0  0  0  0
 21 34  1  0  0  0  0
 22 23  2  0  0  0  0
 22 35  1  0  0  0  0
 23 36  1  0  0  0  0
M  END
