4xyn_ligand
 OpenBabel08222323353D

158159  0  0  1  0  0  0  0  0999 V2000
  -22.5650   36.1130  -24.0520 N   0  3  0  0  0  0  0  0  0  0  0  0
  -23.1410   37.4010  -23.7100 C   0  0  2  0  0  0  0  0  0  0  0  0
  -24.5290   37.2520  -23.0810 C   0  0  0  0  0  0  0  0  0  0  0  0
  -25.4060   36.5830  -23.6510 O   0  0  0  0  0  0  0  0  0  0  0  0
  -23.2250   38.2900  -24.9670 C   0  0  0  0  0  0  0  0  0  0  0  0
  -22.8520   39.7450  -24.6970 C   0  0  0  0  0  0  0  0  0  0  0  0
  -22.7680   40.6010  -25.9490 C   0  0  0  0  0  0  0  0  0  0  0  0
  -21.5170   40.4450  -26.7120 N   0  0  0  0  0  0  0  0  0  0  0  0
  -21.2720   41.0860  -27.8680 C   0  0  0  0  0  3  0  0  0  0  0  0
  -20.1120   40.9340  -28.5280 N   0  0  0  0  0  0  0  0  0  0  0  0
  -22.2030   41.9020  -28.3640 N   0  0  0  0  0  0  0  0  0  0  0  0
  -24.7320   37.8760  -21.9150 N   0  0  0  0  0  0  0  0  0  0  0  0
  -26.0770   38.0490  -21.3500 C   0  0  2  0  0  0  0  0  0  0  0  0
  -26.3910   39.4660  -20.8030 C   0  0  0  0  0  0  0  0  0  0  0  0
  -25.4870   40.2540  -20.5420 O   0  0  0  0  0  0  0  0  0  0  0  0
  -26.3050   37.0470  -20.2340 C   0  0  2  0  0  0  0  0  0  0  0  0
  -25.6130   37.4410  -19.0600 O   0  0  0  0  0  0  0  0  0  0  0  0
  -25.7930   35.6950  -20.6420 C   0  0  0  0  0  0  0  0  0  0  0  0
  -27.6850   39.7760  -20.6480 N   0  0  0  0  0  0  0  0  0  0  0  0
  -28.1230   41.0670  -20.1080 C   0  0  2  0  0  0  0  0  0  0  0  0
  -27.6720   41.1100  -18.6630 C   0  0  0  0  0  0  0  0  0  0  0  0
  -27.7500   40.1150  -17.9670 O   0  0  0  0  0  0  0  0  0  0  0  0
  -29.6530   41.2730  -20.2160 C   0  0  0  0  0  0  0  0  0  0  0  0
  -30.2500   41.3540  -21.6580 C   0  0  0  0  0  0  0  0  0  0  0  0
  -31.8110   41.3780  -21.7030 C   0  0  0  0  0  0  0  0  0  0  0  0
  -32.4490   40.6640  -20.8850 O   0  5  0  0  0  0  0  0  0  0  0  0
  -32.4070   42.1030  -22.5590 O   0  0  0  0  0  0  0  0  0  0  0  0
  -27.1580   42.2490  -18.2250 N   0  0  0  0  0  0  0  0  0  0  0  0
  -26.5220   42.3290  -16.9270 C   0  0  2  0  0  0  0  0  0  0  0  0
  -27.5130   42.2340  -15.7890 C   0  0  0  0  0  0  0  0  0  0  0  0
  -27.1720   41.7620  -14.7050 O   0  0  0  0  0  0  0  0  0  0  0  0
  -25.7570   43.5980  -16.8090 C   0  0  0  0  0  0  0  0  0  0  0  0
  -28.7410   42.6870  -16.0090 N   0  0  0  0  0  0  0  0  0  0  0  0
  -29.7110   42.7070  -14.9110 C   0  0  2  0  0  0  0  0  0  0  0  0
  -30.2140   41.2900  -14.5730 C   0  0  0  0  0  0  0  0  0  0  0  0
  -30.7230   41.0550  -13.4880 O   0  0  0  0  0  0  0  0  0  0  0  0
  -30.8850   43.6430  -15.2400 C   0  0  0  0  0  0  0  0  0  0  0  0
  -31.5610   43.2470  -16.4580 C   0  0  0  0  0  0  0  0  0  0  0  0
  -31.3000   43.6710  -17.7190 C   0  0  0  0  0  0  0  0  0  0  0  0
  -32.6070   42.3030  -16.5510 C   0  0  0  0  0  0  0  0  0  0  0  0
  -32.1420   43.0510  -18.6100 N   0  0  0  0  0  0  0  0  0  0  0  0
  -32.9540   42.1990  -17.9110 C   0  0  0  0  0  0  0  0  0  0  0  0
  -33.2980   41.5300  -15.6080 C   0  0  0  0  0  0  0  0  0  0  0  0
  -33.9590   41.3560  -18.3570 C   0  0  0  0  0  0  0  0  0  0  0  0
  -34.2900   40.6880  -16.0500 C   0  0  0  0  0  0  0  0  0  0  0  0
  -34.6200   40.6120  -17.4130 C   0  0  0  0  0  0  0  0  0  0  0  0
  -30.0400   40.3280  -15.4670 N   0  0  0  0  0  0  0  0  0  0  0  0
  -30.4630   38.9730  -15.1510 C   0  0  2  0  0  0  0  0  0  0  0  0
  -29.5470   38.2680  -14.1290 C   0  0  0  0  0  0  0  0  0  0  0  0
  -29.9090   37.2030  -13.6060 O   0  0  0  0  0  0  0  0  0  0  0  0
  -30.5450   38.1430  -16.4220 C   0  0  0  0  0  0  0  0  0  0  0  0
  -31.5410   38.6430  -17.4450 C   0  0  0  0  0  0  0  0  0  0  0  0
  -31.1800   38.1010  -18.8180 C   0  0  0  0  0  0  0  0  0  0  0  0
  -32.3780   37.7570  -19.6430 C   0  0  0  0  0  0  0  0  0  0  0  0
  -32.4640   36.2680  -19.7690 N   0  3  0  0  0  0  0  0  0  0  0  0
  -28.3710   38.8420  -13.8450 N   0  0  0  0  0  0  0  0  0  0  0  0
  -27.4180   38.1850  -12.9450 C   0  0  2  0  0  0  0  0  0  0  0  0
  -28.0030   38.1350  -11.5610 C   0  0  0  0  0  0  0  0  0  0  0  0
  -28.5050   39.1530  -11.0590 O   0  0  0  0  0  0  0  0  0  0  0  0
  -26.0210   38.9010  -12.8460 C   0  0  0  0  0  0  0  0  0  0  0  0
  -25.2260   38.8190  -14.1730 C   0  0  0  0  0  0  0  0  0  0  0  0
  -26.1710   40.3340  -12.3130 C   0  0  0  0  0  0  0  0  0  0  0  0
  -27.9370   36.9740  -10.9140 N   0  0  0  0  0  0  0  0  0  0  0  0
  -28.5700   36.8970   -9.6060 C   0  0  2  0  0  0  0  0  0  0  0  0
  -27.5940   36.4860   -8.5200 C   0  0  0  0  0  0  0  0  0  0  0  0
  -27.2550   37.3120   -7.6580 O   0  0  0  0  0  0  0  0  0  0  0  0
  -29.7810   35.9510   -9.6580 C   0  0  0  0  0  0  0  0  0  0  0  0
  -30.9680   36.2680   -8.7300 C   0  0  0  0  0  0  0  0  0  0  0  0
  -31.3790   37.7470   -8.7360 C   0  0  0  0  0  0  0  0  0  0  0  0
  -32.1680   35.4200   -9.1200 C   0  0  0  0  0  0  0  0  0  0  0  0
  -27.1380   35.2340   -8.5910 N   0  0  0  0  0  0  0  0  0  0  0  0
  -26.5180   34.5190   -7.4600 C   0  0  2  0  0  0  0  0  0  0  0  0
  -27.2050   33.1420   -7.3290 C   0  0  0  0  0  0  0  0  0  0  0  0
  -27.1700   32.4950   -6.2730 O   0  5  0  0  0  0  0  0  0  0  0  0
  -26.6130   35.3120   -6.1260 C   0  0  0  0  0  0  0  0  0  0  0  0
  -26.1380   34.5490   -5.0220 O   0  0  0  0  0  0  0  0  0  0  0  0
  -27.8190   32.6280   -8.2750 O   0  0  0  0  0  0  0  0  0  0  0  0
  -21.6546   36.2504  -24.4622 H   0  0  0  0  0  0  0  0  0  0  0  0
  -23.1634   35.6420  -24.7124 H   0  0  0  0  0  0  0  0  0  0  0  0
  -22.4770   35.5524  -23.2189 H   0  0  0  0  0  0  0  0  0  0  0  0
  -22.4816   37.8900  -22.9778 H   0  0  0  0  0  0  0  0  0  0  0  0
  -24.2556   38.2581  -25.3502 H   0  0  0  0  0  0  0  0  0  0  0  0
  -22.5387   37.8879  -25.7268 H   0  0  0  0  0  0  0  0  0  0  0  0
  -21.8720   39.7645  -24.1977 H   0  0  0  0  0  0  0  0  0  0  0  0
  -23.6118   40.1795  -24.0307 H   0  0  0  0  0  0  0  0  0  0  0  0
  -22.8596   41.6559  -25.6510 H   0  0  0  0  0  0  0  0  0  0  0  0
  -23.6076   40.3315  -26.6066 H   0  0  0  0  0  0  0  0  0  0  0  0
  -20.7936   39.8127  -26.3408 H   0  0  0  0  0  0  0  0  0  0  0  0
  -19.9525   41.4382  -29.4119 H   0  0  0  0  0  0  0  0  0  0  0  0
  -19.3820   40.3132  -28.1502 H   0  0  0  0  0  0  0  0  0  0  0  0
  -23.0964   42.0266  -27.8668 H   0  0  0  0  0  0  0  0  0  0  0  0
  -22.0286   42.4076  -29.2443 H   0  0  0  0  0  0  0  0  0  0  0  0
  -23.9450   38.2352  -21.4134 H   0  0  0  0  0  0  0  0  0  0  0  0
  -26.7952   37.8413  -22.1569 H   0  0  0  0  0  0  0  0  0  0  0  0
  -27.3825   36.9847  -20.0215 H   0  0  0  0  0  0  0  0  0  0  0  0
  -25.7674   36.8027  -18.3735 H   0  0  0  0  0  0  0  0  0  0  0  0
  -25.9633   34.9770  -19.8262 H   0  0  0  0  0  0  0  0  0  0  0  0
  -24.7157   35.7597  -20.8546 H   0  0  0  0  0  0  0  0  0  0  0  0
  -26.3252   35.3582  -21.5439 H   0  0  0  0  0  0  0  0  0  0  0  0
  -28.3768   39.1031  -20.9099 H   0  0  0  0  0  0  0  0  0  0  0  0
  -27.6287   41.8746  -20.6678 H   0  0  0  0  0  0  0  0  0  0  0  0
  -29.9002   42.2123  -19.6997 H   0  0  0  0  0  0  0  0  0  0  0  0
  -30.1398   40.4321  -19.7005 H   0  0  0  0  0  0  0  0  0  0  0  0
  -29.9018   40.4784  -22.2255 H   0  0  0  0  0  0  0  0  0  0  0  0
  -29.8768   42.2722  -22.1350 H   0  0  0  0  0  0  0  0  0  0  0  0
  -27.2099   43.0660  -18.7993 H   0  0  0  0  0  0  0  0  0  0  0  0
  -25.8199   41.4867  -16.8406 H   0  0  0  0  0  0  0  0  0  0  0  0
  -25.2788   43.6472  -15.8196 H   0  0  0  0  0  0  0  0  0  0  0  0
  -26.4411   44.4510  -16.9284 H   0  0  0  0  0  0  0  0  0  0  0  0
  -24.9849   43.6348  -17.5916 H   0  0  0  0  0  0  0  0  0  0  0  0
  -29.0024   43.0124  -16.9177 H   0  0  0  0  0  0  0  0  0  0  0  0
  -29.2019   43.1033  -14.0201 H   0  0  0  0  0  0  0  0  0  0  0  0
  -30.5014   44.6667  -15.3620 H   0  0  0  0  0  0  0  0  0  0  0  0
  -31.6048   43.6178  -14.4086 H   0  0  0  0  0  0  0  0  0  0  0  0
  -30.5342   44.3975  -17.9867 H   0  0  0  0  0  0  0  0  0  0  0  0
  -32.1593   43.2014  -19.6288 H   0  0  0  0  0  0  0  0  0  0  0  0
  -33.0553   41.5949  -14.5535 H   0  0  0  0  0  0  0  0  0  0  0  0
  -34.2125   41.2872  -19.4087 H   0  0  0  0  0  0  0  0  0  0  0  0
  -34.8259   40.0732  -15.3359 H   0  0  0  0  0  0  0  0  0  0  0  0
  -35.4175   39.9484  -17.7271 H   0  0  0  0  0  0  0  0  0  0  0  0
  -29.6212   40.5319  -16.3519 H   0  0  0  0  0  0  0  0  0  0  0  0
  -31.4696   39.0329  -14.7114 H   0  0  0  0  0  0  0  0  0  0  0  0
  -30.8275   37.1172  -16.1428 H   0  0  0  0  0  0  0  0  0  0  0  0
  -29.5495   38.1348  -16.8898 H   0  0  0  0  0  0  0  0  0  0  0  0
  -31.5201   39.7425  -17.4688 H   0  0  0  0  0  0  0  0  0  0  0  0
  -32.5499   38.3013  -17.1706 H   0  0  0  0  0  0  0  0  0  0  0  0
  -30.5716   37.1938  -18.6880 H   0  0  0  0  0  0  0  0  0  0  0  0
  -30.5932   38.8626  -19.3525 H   0  0  0  0  0  0  0  0  0  0  0  0
  -32.2812   38.2077  -20.6417 H   0  0  0  0  0  0  0  0  0  0  0  0
  -33.2860   38.1399  -19.1543 H   0  0  0  0  0  0  0  0  0  0  0  0
  -33.2692   36.0237  -20.3241 H   0  0  0  0  0  0  0  0  0  0  0  0
  -32.5508   35.8577  -18.8524 H   0  0  0  0  0  0  0  0  0  0  0  0
  -31.6300   35.9198  -20.2154 H   0  0  0  0  0  0  0  0  0  0  0  0
  -28.1407   39.7267  -14.2504 H   0  0  0  0  0  0  0  0  0  0  0  0
  -27.2560   37.1601  -13.3100 H   0  0  0  0  0  0  0  0  0  0  0  0
  -25.4330   38.3485  -12.0983 H   0  0  0  0  0  0  0  0  0  0  0  0
  -24.2602   39.3319  -14.0541 H   0  0  0  0  0  0  0  0  0  0  0  0
  -25.8016   39.3028  -14.9758 H   0  0  0  0  0  0  0  0  0  0  0  0
  -25.0516   37.7641  -14.4314 H   0  0  0  0  0  0  0  0  0  0  0  0
  -26.7429   40.3177  -11.3735 H   0  0  0  0  0  0  0  0  0  0  0  0
  -26.7027   40.9475  -13.0552 H   0  0  0  0  0  0  0  0  0  0  0  0
  -25.1750   40.7628  -12.1286 H   0  0  0  0  0  0  0  0  0  0  0  0
  -27.4700   36.1842  -11.3117 H   0  0  0  0  0  0  0  0  0  0  0  0
  -28.9387   37.9023   -9.3541 H   0  0  0  0  0  0  0  0  0  0  0  0
  -29.4231   34.9426   -9.4032 H   0  0  0  0  0  0  0  0  0  0  0  0
  -30.1593   35.9557  -10.6909 H   0  0  0  0  0  0  0  0  0  0  0  0
  -30.6700   36.0049   -7.7043 H   0  0  0  0  0  0  0  0  0  0  0  0
  -32.2285   37.8942   -8.0528 H   0  0  0  0  0  0  0  0  0  0  0  0
  -31.6721   38.0420   -9.7544 H   0  0  0  0  0  0  0  0  0  0  0  0
  -30.5310   38.3646   -8.4050 H   0  0  0  0  0  0  0  0  0  0  0  0
  -31.8824   34.3577   -9.1183 H   0  0  0  0  0  0  0  0  0  0  0  0
  -32.5081   35.7066  -10.1261 H   0  0  0  0  0  0  0  0  0  0  0  0
  -32.9817   35.5820   -8.3978 H   0  0  0  0  0  0  0  0  0  0  0  0
  -27.2217   34.7518   -9.4631 H   0  0  0  0  0  0  0  0  0  0  0  0
  -25.4529   34.3645   -7.6872 H   0  0  0  0  0  0  0  0  0  0  0  0
  -27.6641   35.5817   -5.9463 H   0  0  0  0  0  0  0  0  0  0  0  0
  -26.0091   36.2273   -6.2122 H   0  0  0  0  0  0  0  0  0  0  0  0
  -26.6584   33.7587   -4.9374 H   0  0  0  0  0  0  0  0  0  0  0  0
  1  2  1  0  0  0  0
  1 78  1  0  0  0  0
  1 79  1  0  0  0  0
  1 80  1  0  0  0  0
  2  3  1  0  0  0  0
  2  5  1  0  0  0  0
  2 81  1  1  0  0  0
  3  4  2  0  0  0  0
  3 12  1  0  0  0  0
  5  6  1  0  0  0  0
  5 82  1  0  0  0  0
  5 83  1  0  0  0  0
  6  7  1  0  0  0  0
  6 84  1  0  0  0  0
  6 85  1  0  0  0  0
  7  8  1  0  0  0  0
  7 86  1  0  0  0  0
  7 87  1  0  0  0  0
  8  9  1  0  0  0  0
  8 88  1  0  0  0  0
  9 10  1  0  0  0  0
  9 11  1  0  0  0  0
 10 89  1  0  0  0  0
 10 90  1  0  0  0  0
 11 91  1  0  0  0  0
 11 92  1  0  0  0  0
 12 13  1  0  0  0  0
 12 93  1  0  0  0  0
 13 14  1  0  0  0  0
 13 16  1  0  0  0  0
 13 94  1  6  0  0  0
 14 15  2  0  0  0  0
 14 19  1  0  0  0  0
 16 17  1  0  0  0  0
 16 18  1  0  0  0  0
 16 95  1  1  0  0  0
 17 96  1  0  0  0  0
 18 97  1  0  0  0  0
 18 98  1  0  0  0  0
 18 99  1  0  0  0  0
 19 20  1  0  0  0  0
 19100  1  0  0  0  0
 20 21  1  0  0  0  0
 20 23  1  0  0  0  0
 20101  1  6  0  0  0
 21 22  2  0  0  0  0
 21 28  1  0  0  0  0
 23 24  1  0  0  0  0
 23102  1  0  0  0  0
 23103  1  0  0  0  0
 24 25  1  0  0  0  0
 24104  1  0  0  0  0
 24105  1  0  0  0  0
 25 26  1  0  0  0  0
 25 27  2  0  0  0  0
 28 29  1  0  0  0  0
 28106  1  0  0  0  0
 29 30  1  0  0  0  0
 29 32  1  0  0  0  0
 29107  1  1  0  0  0
 30 31  2  0  0  0  0
 30 33  1  0  0  0  0
 32108  1  0  0  0  0
 32109  1  0  0  0  0
 32110  1  0  0  0  0
 33 34  1  0  0  0  0
 33111  1  0  0  0  0
 34 35  1  0  0  0  0
 34 37  1  0  0  0  0
 34112  1  1  0  0  0
 35 36  2  0  0  0  0
 35 47  1  0  0  0  0
 37 38  1  0  0  0  0
 37113  1  0  0  0  0
 37114  1  0  0  0  0
 38 39  2  0  0  0  0
 38 40  1  0  0  0  0
 39 41  1  0  0  0  0
 39115  1  0  0  0  0
 40 42  2  0  0  0  0
 40 43  1  0  0  0  0
 41 42  1  0  0  0  0
 41116  1  0  0  0  0
 42 44  1  0  0  0  0
 43 45  2  0  0  0  0
 43117  1  0  0  0  0
 44 46  2  0  0  0  0
 44118  1  0  0  0  0
 45 46  1  0  0  0  0
 45119  1  0  0  0  0
 46120  1  0  0  0  0
 47 48  1  0  0  0  0
 47121  1  0  0  0  0
 48 49  1  0  0  0  0
 48 51  1  0  0  0  0
 48122  1  1  0  0  0
 49 50  2  0  0  0  0
 49 56  1  0  0  0  0
 51 52  1  0  0  0  0
 51123  1  0  0  0  0
 51124  1  0  0  0  0
 52 53  1  0  0  0  0
 52125  1  0  0  0  0
 52126  1  0  0  0  0
 53 54  1  0  0  0  0
 53127  1  0  0  0  0
 53128  1  0  0  0  0
 54 55  1  0  0  0  0
 54129  1  0  0  0  0
 54130  1  0  0  0  0
 55131  1  0  0  0  0
 55132  1  0  0  0  0
 55133  1  0  0  0  0
 56 57  1  0  0  0  0
 56134  1  0  0  0  0
 57 58  1  0  0  0  0
 57 60  1  0  0  0  0
 57135  1  6  0  0  0
 58 59  2  0  0  0  0
 58 63  1  0  0  0  0
 60 61  1  0  0  0  0
 60 62  1  0  0  0  0
 60136  1  0  0  0  0
 61137  1  0  0  0  0
 61138  1  0  0  0  0
 61139  1  0  0  0  0
 62140  1  0  0  0  0
 62141  1  0  0  0  0
 62142  1  0  0  0  0
 63 64  1  0  0  0  0
 63143  1  0  0  0  0
 64 65  1  0  0  0  0
 64 67  1  0  0  0  0
 64144  1  1  0  0  0
 65 66  2  0  0  0  0
 65 71  1  0  0  0  0
 67 68  1  0  0  0  0
 67145  1  0  0  0  0
 67146  1  0  0  0  0
 68 69  1  0  0  0  0
 68 70  1  0  0  0  0
 68147  1  0  0  0  0
 69148  1  0  0  0  0
 69149  1  0  0  0  0
 69150  1  0  0  0  0
 70151  1  0  0  0  0
 70152  1  0  0  0  0
 70153  1  0  0  0  0
 71 72  1  0  0  0  0
 71154  1  0  0  0  0
 72 73  1  0  0  0  0
 72 75  1  0  0  0  0
 72155  1  6  0  0  0
 73 74  1  0  0  0  0
 73 77  2  0  0  0  0
 75 76  1  0  0  0  0
 75156  1  0  0  0  0
 75157  1  0  0  0  0
 76158  1  0  0  0  0
M  CHG  4   1   1  26  -1  55   1  74  -1
M  END
