4y2t_ligand
 OpenBabel08222323353D

 36 37  0  0  0  0  0  0  0  0999 V2000
  -11.0720   -5.0160   55.6690 C   0  0  0  0  0  0  0  0  0  0  0  0
  -12.0730   -5.9700   55.6690 C   0  0  0  0  0  0  0  0  0  0  0  0
  -10.6950   -4.4060   56.8480 C   0  0  0  0  0  0  0  0  0  0  0  0
  -12.6820   -6.3000   56.8590 C   0  0  0  0  0  0  0  0  0  0  0  0
  -11.2940   -4.7460   58.0410 C   0  0  0  0  0  0  0  0  0  0  0  0
  -17.4420   -6.5310   60.5770 C   0  0  0  0  0  0  0  0  0  0  0  0
  -16.1710   -4.9470   61.8840 C   0  0  0  0  0  0  0  0  0  0  0  0
  -16.3960   -6.5310   59.6780 C   0  0  0  0  0  0  0  0  0  0  0  0
  -15.1200   -4.9370   60.9870 C   0  0  0  0  0  0  0  0  0  0  0  0
  -17.3090   -5.7250   61.6810 C   0  0  0  0  0  0  0  0  0  0  0  0
  -12.2870   -5.7010   58.0420 C   0  0  0  0  0  0  0  0  0  0  0  0
  -15.2700   -5.7580   59.8900 C   0  0  0  0  0  0  0  0  0  0  0  0
  -18.4220   -5.7280   62.6400 C   0  0  0  0  0  0  0  0  0  0  0  0
  -12.9830   -6.0700   59.3090 C   0  0  0  0  0  0  0  0  0  0  0  0
  -17.9760   -6.6220   63.7730 C   0  0  0  0  0  0  0  0  0  0  0  0
  -18.1750   -8.0900   63.5230 C   0  0  0  0  0  0  0  0  0  0  0  0
  -17.8150   -8.6960   64.7660 O   0  0  0  0  0  0  0  0  0  0  0  0
  -14.3390   -5.8620   58.8920 O   0  0  0  0  0  0  0  0  0  0  0  0
  -10.5821   -4.7466   54.7403 H   0  0  0  0  0  0  0  0  0  0  0  0
  -12.3739   -6.4511   54.7454 H   0  0  0  0  0  0  0  0  0  0  0  0
   -9.9181   -3.6501   56.8352 H   0  0  0  0  0  0  0  0  0  0  0  0
  -13.4781   -7.0357   56.8691 H   0  0  0  0  0  0  0  0  0  0  0  0
  -10.9886   -4.2692   58.9653 H   0  0  0  0  0  0  0  0  0  0  0  0
  -18.3263   -7.1379   60.4198 H   0  0  0  0  0  0  0  0  0  0  0  0
  -16.1082   -4.3304   62.7733 H   0  0  0  0  0  0  0  0  0  0  0  0
  -16.4581   -7.1484   58.7892 H   0  0  0  0  0  0  0  0  0  0  0  0
  -14.2376   -4.3252   61.1359 H   0  0  0  0  0  0  0  0  0  0  0  0
  -19.3329   -6.1279   62.1706 H   0  0  0  0  0  0  0  0  0  0  0  0
  -18.6156   -4.7094   63.0074 H   0  0  0  0  0  0  0  0  0  0  0  0
  -12.7019   -5.4081   60.1414 H   0  0  0  0  0  0  0  0  0  0  0  0
  -12.7951   -7.1160   59.5927 H   0  0  0  0  0  0  0  0  0  0  0  0
  -18.5455   -6.3464   64.6729 H   0  0  0  0  0  0  0  0  0  0  0  0
  -16.9046   -6.4455   63.9487 H   0  0  0  0  0  0  0  0  0  0  0  0
  -17.5216   -8.4420   62.7111 H   0  0  0  0  0  0  0  0  0  0  0  0
  -19.2234   -8.3065   63.2700 H   0  0  0  0  0  0  0  0  0  0  0  0
  -17.9125   -9.6385   64.6975 H   0  0  0  0  0  0  0  0  0  0  0  0
  1 19  1  0  0  0  0
  2  1  2  0  0  0  0
  2 20  1  0  0  0  0
  3  1  1  0  0  0  0
  3 21  1  0  0  0  0
  4  2  1  0  0  0  0
  4 22  1  0  0  0  0
  5  3  2  0  0  0  0
  5 23  1  0  0  0  0
  6 10  1  0  0  0  0
  6 24  1  0  0  0  0
  7 10  2  0  0  0  0
  7 25  1  0  0  0  0
  8  6  2  0  0  0  0
  8 26  1  0  0  0  0
  9  7  1  0  0  0  0
  9 27  1  0  0  0  0
 10 13  1  0  0  0  0
 11  4  2  0  0  0  0
 11  5  1  0  0  0  0
 12  8  1  0  0  0  0
 12  9  2  0  0  0  0
 13 15  1  0  0  0  0
 13 28  1  0  0  0  0
 13 29  1  0  0  0  0
 14 11  1  0  0  0  0
 14 18  1  0  0  0  0
 14 30  1  0  0  0  0
 14 31  1  0  0  0  0
 15 16  1  0  0  0  0
 15 32  1  0  0  0  0
 15 33  1  0  0  0  0
 16 17  1  0  0  0  0
 16 34  1  0  0  0  0
 16 35  1  0  0  0  0
 17 36  1  0  0  0  0
 18 12  1  0  0  0  0
M  END
