4y46_ligand
 OpenBabel08222323353D

 62 65  0  0  1  0  0  0  0  0999 V2000
    2.2840  -30.3820  -29.6930 C   0  0  0  0  0  0  0  0  0  0  0  0
    2.2940  -30.5100  -31.2000 C   0  0  2  0  0  0  0  0  0  0  0  0
    1.3970  -31.7200  -31.5790 C   0  0  0  0  0  0  0  0  0  0  0  0
    0.0050  -31.7100  -30.9610 C   0  0  0  0  0  0  0  0  0  0  0  0
    6.0390  -27.3170  -32.8170 C   0  0  0  0  0  0  0  0  0  0  0  0
    6.7780  -26.1730  -33.1650 C   0  0  0  0  0  0  0  0  0  0  0  0
    6.3200  -24.9070  -32.9820 C   0  0  0  0  0  0  0  0  0  0  0  0
    4.9950  -24.6180  -32.4060 C   0  0  0  0  0  0  0  0  0  0  0  0
    2.9280  -25.5440  -31.4100 C   0  0  0  0  0  0  0  0  0  0  0  0
    2.9720  -25.8750  -29.8730 C   0  0  0  0  0  0  0  0  0  0  0  0
    1.7760  -26.7240  -29.4800 C   0  0  0  0  0  0  0  0  0  0  0  0
    1.6920  -26.2760  -31.8470 C   0  0  0  0  0  0  0  0  0  0  0  0
    4.7490  -27.1240  -32.2550 C   0  0  0  0  0  0  0  0  0  0  0  0
    4.4860  -29.4840  -32.0470 C   0  0  0  0  0  0  0  0  0  0  0  0
   -2.5420  -35.7890  -29.7390 C   0  0  0  0  0  0  0  0  0  0  0  0
   -3.0700  -34.5950  -28.8930 C   0  0  0  0  0  0  0  0  0  0  0  0
   -4.5570  -34.3300  -29.3120 C   0  0  0  0  0  0  0  0  0  0  0  0
   -2.1230  -33.4610  -29.0410 N   0  0  0  0  0  0  0  0  0  0  0  0
   -2.3670  -32.0660  -28.6550 C   0  0  0  0  0  0  0  0  0  0  0  0
   -3.4340  -31.7070  -28.1580 O   0  0  0  0  0  0  0  0  0  0  0  0
   -1.3600  -31.0960  -28.8750 N   0  0  0  0  0  0  0  0  0  0  0  0
   -0.0170  -31.3910  -29.4480 C   0  0  2  0  0  0  0  0  0  0  0  0
    0.9210  -30.2110  -29.1210 C   0  0  0  0  0  0  0  0  0  0  0  0
    3.6830  -30.5750  -31.7100 N   0  0  0  0  0  0  0  0  0  0  0  0
    5.7430  -29.6920  -32.5880 N   0  0  0  0  0  0  0  0  0  0  0  0
    6.4410  -28.6170  -32.9460 C   0  0  0  0  0  0  0  0  0  0  0  0
    4.5940  -23.4740  -32.2520 O   0  0  0  0  0  0  0  0  0  0  0  0
    4.2620  -25.8070  -32.0760 N   0  0  0  0  0  0  0  0  0  0  0  0
    0.8150  -26.3700  -30.5980 C   0  0  0  0  0  0  0  0  0  0  0  0
    4.0130  -28.2080  -31.8930 N   0  0  0  0  0  0  0  0  0  0  0  0
    2.8909  -29.5081  -29.4137 H   0  0  0  0  0  0  0  0  0  0  0  0
    2.7304  -31.2909  -29.2634 H   0  0  0  0  0  0  0  0  0  0  0  0
    1.8346  -29.6077  -31.6298 H   0  0  0  0  0  0  0  0  0  0  0  0
    1.9078  -32.6382  -31.2536 H   0  0  0  0  0  0  0  0  0  0  0  0
    1.2841  -31.7312  -32.6731 H   0  0  0  0  0  0  0  0  0  0  0  0
   -0.4455  -32.7023  -31.1104 H   0  0  0  0  0  0  0  0  0  0  0  0
   -0.5978  -30.9514  -31.4818 H   0  0  0  0  0  0  0  0  0  0  0  0
    7.7660  -26.3081  -33.6027 H   0  0  0  0  0  0  0  0  0  0  0  0
    6.9573  -24.0731  -33.2725 H   0  0  0  0  0  0  0  0  0  0  0  0
    2.7379  -24.4690  -31.5451 H   0  0  0  0  0  0  0  0  0  0  0  0
    2.9544  -24.9365  -29.2995 H   0  0  0  0  0  0  0  0  0  0  0  0
    3.8971  -26.4255  -29.6471 H   0  0  0  0  0  0  0  0  0  0  0  0
    1.3786  -26.4367  -28.4953 H   0  0  0  0  0  0  0  0  0  0  0  0
    2.0209  -27.7964  -29.4779 H   0  0  0  0  0  0  0  0  0  0  0  0
    1.9488  -27.2807  -32.2138 H   0  0  0  0  0  0  0  0  0  0  0  0
    1.1737  -25.7174  -32.6403 H   0  0  0  0  0  0  0  0  0  0  0  0
   -3.2317  -36.6404  -29.6419 H   0  0  0  0  0  0  0  0  0  0  0  0
   -1.5450  -36.0817  -29.3780 H   0  0  0  0  0  0  0  0  0  0  0  0
   -2.4761  -35.4892  -30.7953 H   0  0  0  0  0  0  0  0  0  0  0  0
   -3.0738  -34.8810  -27.8309 H   0  0  0  0  0  0  0  0  0  0  0  0
   -4.9579  -33.4882  -28.7283 H   0  0  0  0  0  0  0  0  0  0  0  0
   -5.1586  -35.2302  -29.1180 H   0  0  0  0  0  0  0  0  0  0  0  0
   -4.5980  -34.0855  -30.3837 H   0  0  0  0  0  0  0  0  0  0  0  0
   -1.2312  -33.6680  -29.4432 H   0  0  0  0  0  0  0  0  0  0  0  0
   -1.5639  -30.1484  -28.6291 H   0  0  0  0  0  0  0  0  0  0  0  0
    0.3662  -32.2838  -28.9322 H   0  0  0  0  0  0  0  0  0  0  0  0
    0.4815  -29.2891  -29.5296 H   0  0  0  0  0  0  0  0  0  0  0  0
    1.0071  -30.1230  -28.0279 H   0  0  0  0  0  0  0  0  0  0  0  0
    4.0946  -31.5119  -31.8268 H   0  0  0  0  0  0  0  0  0  0  0  0
    7.4193  -28.7883  -33.3803 H   0  0  0  0  0  0  0  0  0  0  0  0
    0.3226  -25.4073  -30.3962 H   0  0  0  0  0  0  0  0  0  0  0  0
    0.0526  -27.1539  -30.7173 H   0  0  0  0  0  0  0  0  0  0  0  0
  1 23  1  0  0  0  0
  1 31  1  0  0  0  0
  1 32  1  0  0  0  0
  2  1  1  0  0  0  0
  2 24  1  0  0  0  0
  2 33  1  6  0  0  0
  3  2  1  0  0  0  0
  3 34  1  0  0  0  0
  3 35  1  0  0  0  0
  4  3  1  0  0  0  0
  4 36  1  0  0  0  0
  4 37  1  0  0  0  0
  5  6  1  0  0  0  0
  5 26  1  0  0  0  0
  6  7  2  0  0  0  0
  6 38  1  0  0  0  0
  7 39  1  0  0  0  0
  8  7  1  0  0  0  0
  8 27  2  0  0  0  0
  9 10  1  0  0  0  0
  9 12  1  0  0  0  0
  9 40  1  0  0  0  0
 10 11  1  0  0  0  0
 10 41  1  0  0  0  0
 10 42  1  0  0  0  0
 11 43  1  0  0  0  0
 11 44  1  0  0  0  0
 12 29  1  0  0  0  0
 12 45  1  0  0  0  0
 12 46  1  0  0  0  0
 13  5  2  0  0  0  0
 13 28  1  0  0  0  0
 14 25  1  0  0  0  0
 14 30  2  0  0  0  0
 15 47  1  0  0  0  0
 15 48  1  0  0  0  0
 15 49  1  0  0  0  0
 16 15  1  0  0  0  0
 16 17  1  0  0  0  0
 16 50  1  0  0  0  0
 17 51  1  0  0  0  0
 17 52  1  0  0  0  0
 17 53  1  0  0  0  0
 18 16  1  0  0  0  0
 18 54  1  0  0  0  0
 19 18  1  0  0  0  0
 19 20  2  0  0  0  0
 21 19  1  0  0  0  0
 21 22  1  0  0  0  0
 21 55  1  0  0  0  0
 22  4  1  0  0  0  0
 22 23  1  0  0  0  0
 22 56  1  1  0  0  0
 23 57  1  0  0  0  0
 23 58  1  0  0  0  0
 24 14  1  0  0  0  0
 24 59  1  0  0  0  0
 25 26  2  0  0  0  0
 26 60  1  0  0  0  0
 28  8  1  0  0  0  0
 28  9  1  0  0  0  0
 29 11  1  0  0  0  0
 29 61  1  0  0  0  0
 29 62  1  0  0  0  0
 30 13  1  0  0  0  0
M  END
