4y4v_ligand
 OpenBabel08222323353D

 13 12  0  0  1  0  0  0  0  0999 V2000
   15.3500   -7.2060   11.0850 N   0  3  0  0  0  0  0  0  0  0  0  0
   15.2290   -8.6180   10.7080 C   0  0  2  0  0  0  0  0  0  0  0  0
   15.0230   -8.7780    9.2020 C   0  0  0  0  0  0  0  0  0  0  0  0
   14.0420   -9.2240   11.4580 C   0  0  0  0  0  0  0  0  0  0  0  0
   14.0810  -10.4490   11.7470 O   0  5  0  0  0  0  0  0  0  0  0  0
   13.1150   -8.4490   11.7500 O   0  0  0  0  0  0  0  0  0  0  0  0
   16.1297   -6.7936   10.5971 H   0  0  0  0  0  0  0  0  0  0  0  0
   15.5004   -7.1353   12.0792 H   0  0  0  0  0  0  0  0  0  0  0  0
   14.5031   -6.7184   10.8378 H   0  0  0  0  0  0  0  0  0  0  0  0
   16.1499   -9.1456   10.9972 H   0  0  0  0  0  0  0  0  0  0  0  0
   14.9365   -9.8465    8.9553 H   0  0  0  0  0  0  0  0  0  0  0  0
   15.8815   -8.3464    8.6666 H   0  0  0  0  0  0  0  0  0  0  0  0
   14.1027   -8.2564    8.9003 H   0  0  0  0  0  0  0  0  0  0  0  0
  1  2  1  0  0  0  0
  1  7  1  0  0  0  0
  1  8  1  0  0  0  0
  1  9  1  0  0  0  0
  2  3  1  0  0  0  0
  2  4  1  0  0  0  0
  2 10  1  1  0  0  0
  3 11  1  0  0  0  0
  3 12  1  0  0  0  0
  3 13  1  0  0  0  0
  4  5  1  0  0  0  0
  4  6  2  0  0  0  0
M  CHG  2   1   1   5  -1
M  END
