4y5h_ligand
 OpenBabel08222323353D

 58 60  0  0  1  0  0  0  0  0999 V2000
   -4.7650  -33.9910  -28.9120 C   0  0  0  0  0  0  0  0  0  0  0  0
   -3.9530  -33.5430  -27.7150 C   0  0  0  0  0  0  0  0  0  0  0  0
   -3.0940  -34.6460  -27.1280 C   0  0  0  0  0  0  0  0  0  0  0  0
   -3.1930  -32.3700  -28.0080 N   0  0  0  0  0  0  0  0  0  0  0  0
   -2.1110  -32.3170  -28.9320 C   0  0  0  0  0  0  0  0  0  0  0  0
   -1.7840  -33.3210  -29.5330 O   0  0  0  0  0  0  0  0  0  0  0  0
   -1.4610  -31.0460  -29.0690 N   0  0  0  0  0  0  0  0  0  0  0  0
   -0.3610  -30.6820  -29.9430 C   0  0  2  0  0  0  0  0  0  0  0  0
    0.1180  -31.7860  -30.8740 C   0  0  0  0  0  0  0  0  0  0  0  0
    1.1840  -31.2140  -31.7790 C   0  0  0  0  0  0  0  0  0  0  0  0
    2.3900  -30.8310  -30.9440 C   0  0  2  0  0  0  0  0  0  0  0  0
    2.0310  -29.7270  -29.9590 C   0  0  0  0  0  0  0  0  0  0  0  0
    0.7910  -30.0730  -29.1390 C   0  0  0  0  0  0  0  0  0  0  0  0
    3.5140  -30.5990  -31.8180 N   0  0  0  0  0  0  0  0  0  0  0  0
    4.1940  -29.3910  -32.1320 C   0  0  0  0  0  0  0  0  0  0  0  0
    5.4150  -29.5620  -32.7350 N   0  0  0  0  0  0  0  0  0  0  0  0
    6.1630  -28.4980  -33.1150 C   0  0  0  0  0  0  0  0  0  0  0  0
    5.6960  -27.1970  -32.9070 C   0  0  0  0  0  0  0  0  0  0  0  0
    6.5280  -26.0200  -33.3350 C   0  0  0  0  0  0  0  0  0  0  0  0
    6.0350  -24.6740  -33.0960 C   0  0  0  0  0  0  0  0  0  0  0  0
    4.7210  -24.5090  -32.4600 C   0  0  0  0  0  0  0  0  0  0  0  0
    4.3540  -23.3780  -32.3130 O   0  0  0  0  0  0  0  0  0  0  0  0
    3.9070  -25.6450  -32.0420 N   0  0  0  0  0  0  0  0  0  0  0  0
    2.6370  -25.4580  -31.4030 C   0  0  0  0  0  0  0  0  0  0  0  0
    2.7000  -25.9440  -29.9590 C   0  0  0  0  0  0  0  0  0  0  0  0
    1.5110  -26.1520  -32.1280 C   0  0  0  0  0  0  0  0  0  0  0  0
    4.4300  -27.0280  -32.2820 C   0  0  0  0  0  0  0  0  0  0  0  0
    3.7120  -28.1410  -31.9170 N   0  0  0  0  0  0  0  0  0  0  0  0
   -5.3359  -34.8942  -28.6505 H   0  0  0  0  0  0  0  0  0  0  0  0
   -4.0892  -34.2144  -29.7507 H   0  0  0  0  0  0  0  0  0  0  0  0
   -5.4598  -33.1899  -29.2043 H   0  0  0  0  0  0  0  0  0  0  0  0
   -4.6760  -33.2645  -26.9342 H   0  0  0  0  0  0  0  0  0  0  0  0
   -2.5334  -34.2548  -26.2662 H   0  0  0  0  0  0  0  0  0  0  0  0
   -2.3887  -35.0069  -27.8910 H   0  0  0  0  0  0  0  0  0  0  0  0
   -3.7368  -35.4765  -26.8008 H   0  0  0  0  0  0  0  0  0  0  0  0
   -3.4380  -31.5262  -27.5305 H   0  0  0  0  0  0  0  0  0  0  0  0
   -1.8120  -30.3139  -28.4852 H   0  0  0  0  0  0  0  0  0  0  0  0
   -0.7445  -29.8850  -30.5970 H   0  0  0  0  0  0  0  0  0  0  0  0
   -0.7241  -32.1546  -31.4781 H   0  0  0  0  0  0  0  0  0  0  0  0
    0.5365  -32.6147  -30.2840 H   0  0  0  0  0  0  0  0  0  0  0  0
    0.7928  -30.3228  -32.2916 H   0  0  0  0  0  0  0  0  0  0  0  0
    1.4768  -31.9673  -32.5252 H   0  0  0  0  0  0  0  0  0  0  0  0
    2.6565  -31.7042  -30.3305 H   0  0  0  0  0  0  0  0  0  0  0  0
    1.8390  -28.8000  -30.5191 H   0  0  0  0  0  0  0  0  0  0  0  0
    2.8779  -29.5729  -29.2742 H   0  0  0  0  0  0  0  0  0  0  0  0
    1.0848  -30.7941  -28.3620 H   0  0  0  0  0  0  0  0  0  0  0  0
    0.4265  -29.1503  -28.6639 H   0  0  0  0  0  0  0  0  0  0  0  0
    3.8807  -31.4393  -32.2874 H   0  0  0  0  0  0  0  0  0  0  0  0
    7.1281  -28.6564  -33.5825 H   0  0  0  0  0  0  0  0  0  0  0  0
    7.4909  -26.1747  -33.8195 H   0  0  0  0  0  0  0  0  0  0  0  0
    6.6271  -23.8060  -33.3823 H   0  0  0  0  0  0  0  0  0  0  0  0
    2.4196  -24.3797  -31.3966 H   0  0  0  0  0  0  0  0  0  0  0  0
    1.7213  -25.7958  -29.4792 H   0  0  0  0  0  0  0  0  0  0  0  0
    3.4660  -25.3736  -29.4132 H   0  0  0  0  0  0  0  0  0  0  0  0
    2.9581  -27.0132  -29.9429 H   0  0  0  0  0  0  0  0  0  0  0  0
    0.5661  -25.9738  -31.5938 H   0  0  0  0  0  0  0  0  0  0  0  0
    1.7115  -27.2328  -32.1677 H   0  0  0  0  0  0  0  0  0  0  0  0
    1.4342  -25.7555  -33.1512 H   0  0  0  0  0  0  0  0  0  0  0  0
  1  2  1  0  0  0  0
  1 29  1  0  0  0  0
  1 30  1  0  0  0  0
  1 31  1  0  0  0  0
  2  3  1  0  0  0  0
  2  4  1  0  0  0  0
  2 32  1  0  0  0  0
  3 33  1  0  0  0  0
  3 34  1  0  0  0  0
  3 35  1  0  0  0  0
  4  5  1  0  0  0  0
  4 36  1  0  0  0  0
  5  6  2  0  0  0  0
  5  7  1  0  0  0  0
  7  8  1  0  0  0  0
  7 37  1  0  0  0  0
  8  9  1  0  0  0  0
  8 13  1  0  0  0  0
  8 38  1  6  0  0  0
  9 10  1  0  0  0  0
  9 39  1  0  0  0  0
  9 40  1  0  0  0  0
 10 11  1  0  0  0  0
 10 41  1  0  0  0  0
 10 42  1  0  0  0  0
 11 12  1  0  0  0  0
 11 14  1  0  0  0  0
 11 43  1  1  0  0  0
 12 13  1  0  0  0  0
 12 44  1  0  0  0  0
 12 45  1  0  0  0  0
 13 46  1  0  0  0  0
 13 47  1  0  0  0  0
 14 15  1  0  0  0  0
 14 48  1  0  0  0  0
 15 16  2  0  0  0  0
 15 28  1  0  0  0  0
 16 17  1  0  0  0  0
 17 18  2  0  0  0  0
 17 49  1  0  0  0  0
 18 19  1  0  0  0  0
 18 27  1  0  0  0  0
 19 20  2  0  0  0  0
 19 50  1  0  0  0  0
 20 21  1  0  0  0  0
 20 51  1  0  0  0  0
 21 22  2  0  0  0  0
 21 23  1  0  0  0  0
 23 24  1  0  0  0  0
 23 27  1  0  0  0  0
 24 25  1  0  0  0  0
 24 26  1  0  0  0  0
 24 52  1  0  0  0  0
 25 53  1  0  0  0  0
 25 54  1  0  0  0  0
 25 55  1  0  0  0  0
 26 56  1  0  0  0  0
 26 57  1  0  0  0  0
 26 58  1  0  0  0  0
 27 28  2  0  0  0  0
M  END
