4y6m_ligand
 OpenBabel08222323353D

100103  0  0  1  0  0  0  0  0999 V2000
   29.5060  -33.3120  -37.7150 O   0  0  0  0  0  0  0  0  0  0  0  0
   29.6730  -32.2660  -37.1360 C   0  0  0  0  0  0  0  0  0  0  0  0
   29.2030  -32.1660  -35.7100 C   0  0  0  0  0  0  0  0  0  0  0  0
   29.2840  -33.2840  -34.8880 C   0  0  0  0  0  0  0  0  0  0  0  0
   28.7000  -30.9750  -35.1970 C   0  0  0  0  0  0  0  0  0  0  0  0
   28.2740  -30.9150  -33.8700 C   0  0  0  0  0  0  0  0  0  0  0  0
   27.7290  -29.6120  -33.3580 C   0  0  0  0  0  0  0  0  0  0  0  0
   26.4060  -29.4450  -33.2530 N   0  0  0  0  0  0  0  0  0  0  0  0
   25.8510  -28.2520  -32.6120 C   0  0  0  0  0  0  0  0  0  0  0  0
   25.3660  -28.6310  -31.2090 C   0  0  0  0  0  0  0  0  0  0  0  0
   26.3190  -28.2210  -30.1100 C   0  0  0  0  0  0  0  0  0  0  0  0
   25.4690  -30.4490  -33.7660 C   0  0  0  0  0  0  0  0  0  0  0  0
   24.1200  -29.8180  -34.1000 C   0  0  0  0  0  0  0  0  0  0  0  0
   24.1080  -29.1040  -35.4370 C   0  0  0  0  0  0  0  0  0  0  0  0
   28.5090  -28.7190  -33.0860 O   0  0  0  0  0  0  0  0  0  0  0  0
   28.3590  -32.0410  -33.0440 C   0  0  0  0  0  0  0  0  0  0  0  0
   28.8620  -33.2280  -33.5610 C   0  0  0  0  0  0  0  0  0  0  0  0
   28.9690  -34.3940  -32.7790 N   0  0  0  0  0  0  0  0  0  0  0  0
   30.2180  -34.6190  -32.0510 C   0  0  0  0  0  0  0  0  0  0  0  0
   29.9170  -35.2960  -30.7230 C   0  0  0  0  0  0  0  0  0  0  0  0
   28.9560  -36.4660  -30.8750 C   0  0  0  0  0  0  0  0  0  0  0  0
   27.6430  -35.9360  -31.4300 C   0  0  0  0  0  0  0  0  0  0  0  0
   27.8610  -35.3560  -32.8170 C   0  0  0  0  0  0  0  0  0  0  0  0
   30.2750  -31.2340  -37.7230 N   0  0  0  0  0  0  0  0  0  0  0  0
   30.4710  -31.1340  -39.0400 C   0  0  0  0  0  0  0  0  0  0  0  0
   29.4760  -30.7530  -39.8640 C   0  0  0  0  0  0  0  0  0  0  0  0
   28.0990  -30.5240  -39.3570 C   0  0  0  0  0  0  0  0  0  0  0  0
   27.0920  -31.4030  -39.7760 C   0  0  0  0  0  0  0  0  0  0  0  0
   25.7870  -31.2560  -39.3160 C   0  0  0  0  0  0  0  0  0  0  0  0
   25.4830  -30.2330  -38.4280 C   0  0  0  0  0  0  0  0  0  0  0  0
   26.4840  -29.3590  -38.0050 C   0  0  0  0  0  0  0  0  0  0  0  0
   27.7920  -29.5040  -38.4680 C   0  0  0  0  0  0  0  0  0  0  0  0
   31.8680  -31.3780  -39.5680 C   0  0  2  0  0  0  0  0  0  0  0  0
   31.8580  -31.5320  -40.9890 O   0  0  0  0  0  0  0  0  0  0  0  0
   32.4590  -32.6710  -39.0360 C   0  0  0  0  0  0  0  0  0  0  0  0
   33.9340  -32.5700  -38.9160 N   0  3  0  0  0  0  0  0  0  0  0  0
   34.6050  -33.8950  -38.8390 C   0  0  0  0  0  0  0  0  0  0  0  0
   36.1080  -33.6860  -38.7210 C   0  0  0  0  0  0  0  0  0  0  0  0
   34.2830  -34.7540  -40.0660 C   0  0  0  0  0  0  0  0  0  0  0  0
   34.1300  -34.6440  -37.6260 C   0  0  0  0  0  0  0  0  0  0  0  0
   33.7230  -33.9400  -36.5080 C   0  0  0  0  0  0  0  0  0  0  0  0
   33.2610  -34.6110  -35.4080 C   0  0  0  0  0  0  0  0  0  0  0  0
   33.2300  -36.0010  -35.3750 C   0  0  0  0  0  0  0  0  0  0  0  0
   33.6510  -36.7100  -36.4890 C   0  0  0  0  0  0  0  0  0  0  0  0
   34.1020  -36.0330  -37.6160 C   0  0  0  0  0  0  0  0  0  0  0  0
   32.8400  -33.8510  -34.3650 O   0  0  0  0  0  0  0  0  0  0  0  0
   33.7820  -33.3070  -33.4750 C   0  0  0  0  0  0  0  0  0  0  0  0
   29.6807  -34.2117  -35.2844 H   0  0  0  0  0  0  0  0  0  0  0  0
   28.6391  -30.0951  -35.8272 H   0  0  0  0  0  0  0  0  0  0  0  0
   25.0067  -27.8714  -33.2055 H   0  0  0  0  0  0  0  0  0  0  0  0
   26.6271  -27.4759  -32.5386 H   0  0  0  0  0  0  0  0  0  0  0  0
   25.2369  -29.7226  -31.1684 H   0  0  0  0  0  0  0  0  0  0  0  0
   24.3977  -28.1403  -31.0310 H   0  0  0  0  0  0  0  0  0  0  0  0
   25.9074  -28.5238  -29.1359 H   0  0  0  0  0  0  0  0  0  0  0  0
   26.4520  -27.1292  -30.1284 H   0  0  0  0  0  0  0  0  0  0  0  0
   27.2912  -28.7115  -30.2657 H   0  0  0  0  0  0  0  0  0  0  0  0
   25.3228  -31.2277  -33.0030 H   0  0  0  0  0  0  0  0  0  0  0  0
   25.8895  -30.9017  -34.6761 H   0  0  0  0  0  0  0  0  0  0  0  0
   23.8701  -29.0908  -33.3134 H   0  0  0  0  0  0  0  0  0  0  0  0
   23.3587  -30.6117  -34.1210 H   0  0  0  0  0  0  0  0  0  0  0  0
   23.1110  -28.6745  -35.6144 H   0  0  0  0  0  0  0  0  0  0  0  0
   24.3464  -29.8201  -36.2373 H   0  0  0  0  0  0  0  0  0  0  0  0
   24.8578  -28.2992  -35.4297 H   0  0  0  0  0  0  0  0  0  0  0  0
   28.0355  -31.9876  -32.0108 H   0  0  0  0  0  0  0  0  0  0  0  0
   30.7136  -33.6544  -31.8666 H   0  0  0  0  0  0  0  0  0  0  0  0
   30.8798  -35.2629  -32.6488 H   0  0  0  0  0  0  0  0  0  0  0  0
   29.4691  -34.5567  -30.0427 H   0  0  0  0  0  0  0  0  0  0  0  0
   30.8595  -35.6661  -30.2932 H   0  0  0  0  0  0  0  0  0  0  0  0
   28.7833  -36.9353  -29.8952 H   0  0  0  0  0  0  0  0  0  0  0  0
   29.3800  -37.2081  -31.5674 H   0  0  0  0  0  0  0  0  0  0  0  0
   27.2564  -35.1508  -30.7636 H   0  0  0  0  0  0  0  0  0  0  0  0
   26.9145  -36.7580  -31.4894 H   0  0  0  0  0  0  0  0  0  0  0  0
   28.1042  -36.1672  -33.5190 H   0  0  0  0  0  0  0  0  0  0  0  0
   26.9445  -34.8462  -33.1489 H   0  0  0  0  0  0  0  0  0  0  0  0
   30.6004  -30.4879  -37.1420 H   0  0  0  0  0  0  0  0  0  0  0  0
   29.6854  -30.6100  -40.9231 H   0  0  0  0  0  0  0  0  0  0  0  0
   27.3315  -32.2050  -40.4648 H   0  0  0  0  0  0  0  0  0  0  0  0
   25.0119  -31.9366  -39.6492 H   0  0  0  0  0  0  0  0  0  0  0  0
   24.4689  -30.1138  -38.0640 H   0  0  0  0  0  0  0  0  0  0  0  0
   26.2440  -28.5612  -37.3114 H   0  0  0  0  0  0  0  0  0  0  0  0
   28.5658  -28.8221  -38.1343 H   0  0  0  0  0  0  0  0  0  0  0  0
   32.5070  -30.5290  -39.2836 H   0  0  0  0  0  0  0  0  0  0  0  0
   31.5136  -30.7424  -41.3896 H   0  0  0  0  0  0  0  0  0  0  0  0
   32.2093  -33.4913  -39.7251 H   0  0  0  0  0  0  0  0  0  0  0  0
   32.0308  -32.8815  -38.0449 H   0  0  0  0  0  0  0  0  0  0  0  0
   34.1531  -32.0504  -38.0805 H   0  0  0  0  0  0  0  0  0  0  0  0
   34.2884  -32.0772  -39.7208 H   0  0  0  0  0  0  0  0  0  0  0  0
   36.6106  -34.6628  -38.6636 H   0  0  0  0  0  0  0  0  0  0  0  0
   36.3274  -33.1068  -37.8120 H   0  0  0  0  0  0  0  0  0  0  0  0
   36.4722  -33.1375  -39.6022 H   0  0  0  0  0  0  0  0  0  0  0  0
   34.7932  -35.7246  -39.9782 H   0  0  0  0  0  0  0  0  0  0  0  0
   34.6282  -34.2393  -40.9748 H   0  0  0  0  0  0  0  0  0  0  0  0
   33.1965  -34.9150  -40.1260 H   0  0  0  0  0  0  0  0  0  0  0  0
   33.7697  -32.8570  -36.5025 H   0  0  0  0  0  0  0  0  0  0  0  0
   32.8816  -36.5224  -34.4908 H   0  0  0  0  0  0  0  0  0  0  0  0
   33.6285  -37.7937  -36.4813 H   0  0  0  0  0  0  0  0  0  0  0  0
   34.4317  -36.5884  -38.4866 H   0  0  0  0  0  0  0  0  0  0  0  0
   33.2611  -32.7256  -32.7000 H   0  0  0  0  0  0  0  0  0  0  0  0
   34.4701  -32.6493  -34.0263 H   0  0  0  0  0  0  0  0  0  0  0  0
   34.3520  -34.1203  -33.0021 H   0  0  0  0  0  0  0  0  0  0  0  0
  1  2  2  0  0  0  0
  2  3  1  0  0  0  0
  2 24  1  0  0  0  0
  3  4  2  0  0  0  0
  3  5  1  0  0  0  0
  4 17  1  0  0  0  0
  4 48  1  0  0  0  0
  5  6  2  0  0  0  0
  5 49  1  0  0  0  0
  6  7  1  0  0  0  0
  6 16  1  0  0  0  0
  7  8  1  0  0  0  0
  7 15  2  0  0  0  0
  8  9  1  0  0  0  0
  8 12  1  0  0  0  0
  9 10  1  0  0  0  0
  9 50  1  0  0  0  0
  9 51  1  0  0  0  0
 10 11  1  0  0  0  0
 10 52  1  0  0  0  0
 10 53  1  0  0  0  0
 11 54  1  0  0  0  0
 11 55  1  0  0  0  0
 11 56  1  0  0  0  0
 12 13  1  0  0  0  0
 12 57  1  0  0  0  0
 12 58  1  0  0  0  0
 13 14  1  0  0  0  0
 13 59  1  0  0  0  0
 13 60  1  0  0  0  0
 14 61  1  0  0  0  0
 14 62  1  0  0  0  0
 14 63  1  0  0  0  0
 16 17  2  0  0  0  0
 16 64  1  0  0  0  0
 17 18  1  0  0  0  0
 18 19  1  0  0  0  0
 18 23  1  0  0  0  0
 19 20  1  0  0  0  0
 19 65  1  0  0  0  0
 19 66  1  0  0  0  0
 20 21  1  0  0  0  0
 20 67  1  0  0  0  0
 20 68  1  0  0  0  0
 21 22  1  0  0  0  0
 21 69  1  0  0  0  0
 21 70  1  0  0  0  0
 22 23  1  0  0  0  0
 22 71  1  0  0  0  0
 22 72  1  0  0  0  0
 23 73  1  0  0  0  0
 23 74  1  0  0  0  0
 24 25  1  0  0  0  0
 24 75  1  0  0  0  0
 25 26  2  0  0  0  0
 25 33  1  0  0  0  0
 26 27  1  0  0  0  0
 26 76  1  0  0  0  0
 27 28  2  0  0  0  0
 27 32  1  0  0  0  0
 28 29  1  0  0  0  0
 28 77  1  0  0  0  0
 29 30  2  0  0  0  0
 29 78  1  0  0  0  0
 30 31  1  0  0  0  0
 30 79  1  0  0  0  0
 31 32  2  0  0  0  0
 31 80  1  0  0  0  0
 32 81  1  0  0  0  0
 33 34  1  0  0  0  0
 33 35  1  0  0  0  0
 33 82  1  1  0  0  0
 34 83  1  0  0  0  0
 35 36  1  0  0  0  0
 35 84  1  0  0  0  0
 35 85  1  0  0  0  0
 36 37  1  0  0  0  0
 36 86  1  0  0  0  0
 36 87  1  0  0  0  0
 37 38  1  0  0  0  0
 37 39  1  0  0  0  0
 37 40  1  0  0  0  0
 38 88  1  0  0  0  0
 38 89  1  0  0  0  0
 38 90  1  0  0  0  0
 39 91  1  0  0  0  0
 39 92  1  0  0  0  0
 39 93  1  0  0  0  0
 40 41  2  0  0  0  0
 40 45  1  0  0  0  0
 41 42  1  0  0  0  0
 41 94  1  0  0  0  0
 42 43  2  0  0  0  0
 42 46  1  0  0  0  0
 43 44  1  0  0  0  0
 43 95  1  0  0  0  0
 44 45  2  0  0  0  0
 44 96  1  0  0  0  0
 45 97  1  0  0  0  0
 46 47  1  0  0  0  0
 47 98  1  0  0  0  0
 47 99  1  0  0  0  0
 47100  1  0  0  0  0
M  CHG  1  36   1
M  END
