4y6p_ligand
 OpenBabel08222323353D

 44 44  0  0  1  0  0  0  0  0999 V2000
   -1.8900   15.3690   22.0120 O   0  0  0  0  0  1  0  0  0  0  0  0
   -0.8050   15.8870   21.0720 P   0  0  0  0  0  0  0  0  0  0  0  0
   -1.1430   15.7410   19.6110 O   0  0  0  0  0  1  0  0  0  0  0  0
   -0.3720   17.2860   21.3980 O   0  0  0  0  0  0  0  0  0  0  0  0
    0.6270   14.8330   21.4120 C   0  0  0  0  0  0  0  0  0  0  0  0
    0.7190   13.5820   20.5430 C   0  0  1  0  0  0  0  0  0  0  0  0
    2.0840   12.9420   20.7550 C   0  0  0  0  0  0  0  0  0  0  0  0
    3.2010   13.6930   20.0610 C   0  0  0  0  0  0  0  0  0  0  0  0
    3.6670   13.2370   18.8980 N   0  0  0  0  0  0  0  0  0  0  0  0
    4.6200   14.0340   18.2350 O   0  0  0  0  0  0  0  0  0  0  0  0
    3.2770   11.9870   18.2580 C   0  0  0  0  0  0  0  0  0  0  0  0
    3.6730   14.6770   20.5940 O   0  0  0  0  0  0  0  0  0  0  0  0
   -0.3440   12.5740   20.9660 C   0  0  0  0  0  0  0  0  0  0  0  0
   -0.3810   11.3480   20.0550 C   0  0  0  0  0  0  0  0  0  0  0  0
   -1.1310   11.6330   18.7550 C   0  0  0  0  0  0  0  0  0  0  0  0
   -1.0750   10.4640   17.7620 C   0  0  0  0  0  0  0  0  0  0  0  0
    0.1940   10.3760   16.9240 C   0  0  0  0  0  0  0  0  0  0  0  0
    0.4780   11.2920   15.9160 C   0  0  0  0  0  0  0  0  0  0  0  0
    1.6440   11.1700   15.1590 C   0  0  0  0  0  0  0  0  0  0  0  0
    2.5220   10.1170   15.3860 C   0  0  0  0  0  0  0  0  0  0  0  0
    2.2270    9.1870   16.3770 C   0  0  0  0  0  0  0  0  0  0  0  0
    1.0700    9.3240   17.1350 C   0  0  0  0  0  0  0  0  0  0  0  0
    0.5771   14.5162   22.4642 H   0  0  0  0  0  0  0  0  0  0  0  0
    1.5372   15.4294   21.2513 H   0  0  0  0  0  0  0  0  0  0  0  0
    0.5836   13.8505   19.4849 H   0  0  0  0  0  0  0  0  0  0  0  0
    2.0549   11.9148   20.3625 H   0  0  0  0  0  0  0  0  0  0  0  0
    2.2959   12.9163   21.8341 H   0  0  0  0  0  0  0  0  0  0  0  0
    5.3823   14.1429   18.7914 H   0  0  0  0  0  0  0  0  0  0  0  0
    3.8240   11.8740   17.3104 H   0  0  0  0  0  0  0  0  0  0  0  0
    2.1955   11.9994   18.0578 H   0  0  0  0  0  0  0  0  0  0  0  0
    3.5172   11.1441   18.9227 H   0  0  0  0  0  0  0  0  0  0  0  0
   -1.3278   13.0652   20.9369 H   0  0  0  0  0  0  0  0  0  0  0  0
   -0.1290   12.2442   21.9931 H   0  0  0  0  0  0  0  0  0  0  0  0
   -0.8846   10.5256   20.5842 H   0  0  0  0  0  0  0  0  0  0  0  0
    0.6505   11.0517   19.8139 H   0  0  0  0  0  0  0  0  0  0  0  0
   -0.6843   12.5186   18.2794 H   0  0  0  0  0  0  0  0  0  0  0  0
   -2.1845   11.8382   18.9958 H   0  0  0  0  0  0  0  0  0  0  0  0
   -1.9286   10.5615   17.0751 H   0  0  0  0  0  0  0  0  0  0  0  0
   -1.1692    9.5289   18.3336 H   0  0  0  0  0  0  0  0  0  0  0  0
   -0.2106   12.1053   15.7175 H   0  0  0  0  0  0  0  0  0  0  0  0
    1.8661   11.9007   14.3897 H   0  0  0  0  0  0  0  0  0  0  0  0
    3.4270   10.0216   14.7970 H   0  0  0  0  0  0  0  0  0  0  0  0
    2.8989    8.3559   16.5582 H   0  0  0  0  0  0  0  0  0  0  0  0
    0.8492    8.5941   17.9054 H   0  0  0  0  0  0  0  0  0  0  0  0
  1  2  1  0  0  0  0
  2  3  1  0  0  0  0
  2  4  2  0  0  0  0
  2  5  1  0  0  0  0
  5  6  1  0  0  0  0
  5 23  1  0  0  0  0
  5 24  1  0  0  0  0
  6  7  1  0  0  0  0
  6 13  1  0  0  0  0
  6 25  1  6  0  0  0
  7  8  1  0  0  0  0
  7 26  1  0  0  0  0
  7 27  1  0  0  0  0
  8  9  1  0  0  0  0
  8 12  2  0  0  0  0
  9 10  1  0  0  0  0
  9 11  1  0  0  0  0
 10 28  1  0  0  0  0
 11 29  1  0  0  0  0
 11 30  1  0  0  0  0
 11 31  1  0  0  0  0
 13 14  1  0  0  0  0
 13 32  1  0  0  0  0
 13 33  1  0  0  0  0
 14 15  1  0  0  0  0
 14 34  1  0  0  0  0
 14 35  1  0  0  0  0
 15 16  1  0  0  0  0
 15 36  1  0  0  0  0
 15 37  1  0  0  0  0
 16 17  1  0  0  0  0
 16 38  1  0  0  0  0
 16 39  1  0  0  0  0
 17 18  2  0  0  0  0
 17 22  1  0  0  0  0
 18 19  1  0  0  0  0
 18 40  1  0  0  0  0
 19 20  2  0  0  0  0
 19 41  1  0  0  0  0
 20 21  1  0  0  0  0
 20 42  1  0  0  0  0
 21 22  2  0  0  0  0
 21 43  1  0  0  0  0
 22 44  1  0  0  0  0
M  END
