4y87_ligand
 OpenBabel08222323353D

 46 49  0  0  1  0  0  0  0  0999 V2000
   82.6280   51.1320   39.5640 C   0  0  0  0  0  0  0  0  0  0  0  0
   82.0420   52.0860   40.5540 C   0  0  0  0  0  0  0  0  0  0  0  0
   80.7520   50.0500   40.3120 C   0  0  0  0  0  0  0  0  0  0  0  0
   80.6540   51.5070   40.8130 C   0  0  0  0  0  0  0  0  0  0  0  0
   80.2650   51.6350   42.2670 N   0  0  0  0  0  0  0  0  0  0  0  0
   79.2190   52.3230   42.7130 C   0  0  0  0  0  0  0  0  0  0  0  0
   78.2860   53.0200   42.0620 N   0  0  0  0  0  0  0  0  0  0  0  0
   80.8630   51.1510   43.2180 N   0  0  0  0  0  0  0  0  0  0  0  0
   80.2560   51.4790   44.3520 C   0  0  0  0  0  0  0  0  0  0  0  0
   79.2030   52.2290   44.0440 C   0  0  0  0  0  0  0  0  0  0  0  0
   78.2470   52.8270   44.7860 C   0  0  0  0  0  0  0  0  0  0  0  0
   78.2180   52.7460   46.0230 O   0  0  0  0  0  0  0  0  0  0  0  0
   77.2610   53.5610   44.1200 N   0  0  0  0  0  0  0  0  0  0  0  0
   77.3070   53.6470   42.7310 C   0  0  1  0  0  3  0  0  0  0  0  0
   76.3890   54.3560   42.0850 N   0  0  0  0  0  0  0  0  0  0  0  0
   76.5270   54.6840   40.6490 C   0  0  2  0  0  0  0  0  0  0  0  0
   76.0080   56.0940   40.3750 C   0  0  0  0  0  0  0  0  0  0  0  0
   75.8170   53.7040   39.9420 C   0  0  0  0  0  0  0  0  0  0  0  0
   74.4500   53.5390   40.1870 C   0  0  0  0  0  0  0  0  0  0  0  0
   73.7390   52.5560   39.5190 C   0  0  0  0  0  0  0  0  0  0  0  0
   74.4040   51.7320   38.6150 C   0  0  0  0  0  0  0  0  0  0  0  0
   75.7700   51.8720   38.3570 C   0  0  0  0  0  0  0  0  0  0  0  0
   76.4780   52.8620   39.0300 C   0  0  0  0  0  0  0  0  0  0  0  0
   82.2190   49.8170   40.1630 C   0  0  0  0  0  0  0  0  0  0  0  0
   73.5250   50.5560   37.8290 Cl  0  0  0  0  0  0  0  0  0  0  0  0
   83.7223   51.2283   39.5081 H   0  0  0  0  0  0  0  0  0  0  0  0
   82.1959   51.2722   38.5622 H   0  0  0  0  0  0  0  0  0  0  0  0
   81.9745   53.1000   40.1331 H   0  0  0  0  0  0  0  0  0  0  0  0
   82.6379   52.1115   41.4782 H   0  0  0  0  0  0  0  0  0  0  0  0
   80.2376   49.9330   39.3468 H   0  0  0  0  0  0  0  0  0  0  0  0
   80.3182   49.3544   41.0454 H   0  0  0  0  0  0  0  0  0  0  0  0
   79.9061   52.0476   40.2143 H   0  0  0  0  0  0  0  0  0  0  0  0
   78.3179   53.0773   41.0341 H   0  0  0  0  0  0  0  0  0  0  0  0
   80.5652   51.1862   45.3543 H   0  0  0  0  0  0  0  0  0  0  0  0
   76.5340   54.0172   44.6332 H   0  0  0  0  0  0  0  0  0  0  0  0
   75.5587   54.6864   42.5972 H   0  0  0  0  0  0  0  0  0  0  0  0
   77.5875   54.6407   40.3603 H   0  0  0  0  0  0  0  0  0  0  0  0
   76.1170   56.3233   39.3047 H   0  0  0  0  0  0  0  0  0  0  0  0
   76.5867   56.8191   40.9660 H   0  0  0  0  0  0  0  0  0  0  0  0
   74.9465   56.1552   40.6568 H   0  0  0  0  0  0  0  0  0  0  0  0
   73.9464   54.1812   40.9005 H   0  0  0  0  0  0  0  0  0  0  0  0
   72.6773   52.4297   39.6979 H   0  0  0  0  0  0  0  0  0  0  0  0
   76.2680   51.2221   37.6466 H   0  0  0  0  0  0  0  0  0  0  0  0
   77.5401   52.9847   38.8514 H   0  0  0  0  0  0  0  0  0  0  0  0
   82.7057   49.6407   41.1336 H   0  0  0  0  0  0  0  0  0  0  0  0
   82.4328   48.9757   39.4874 H   0  0  0  0  0  0  0  0  0  0  0  0
  1  2  1  0  0  0  0
  1 24  1  0  0  0  0
  1 26  1  0  0  0  0
  1 27  1  0  0  0  0
  2  4  1  0  0  0  0
  2 28  1  0  0  0  0
  2 29  1  0  0  0  0
  3 24  1  0  0  0  0
  3 30  1  0  0  0  0
  3 31  1  0  0  0  0
  4  3  1  0  0  0  0
  4  5  1  0  0  0  0
  4 32  1  0  0  0  0
  5  6  1  0  0  0  0
  5  8  1  0  0  0  0
  6  7  1  0  0  0  0
  6 10  2  0  0  0  0
  7 14  1  0  0  0  0
  7 33  1  0  0  0  0
  8  9  2  0  0  0  0
  9 10  1  0  0  0  0
  9 34  1  0  0  0  0
 10 11  1  0  0  0  0
 11 12  2  0  0  0  0
 11 13  1  0  0  0  0
 13 14  1  0  0  0  0
 13 35  1  0  0  0  0
 14 15  1  1  0  0  0
 15 16  1  0  0  0  0
 15 36  1  0  0  0  0
 16 17  1  0  0  0  0
 16 18  1  0  0  0  0
 16 37  1  6  0  0  0
 17 38  1  0  0  0  0
 17 39  1  0  0  0  0
 17 40  1  0  0  0  0
 18 19  2  0  0  0  0
 18 23  1  0  0  0  0
 19 20  1  0  0  0  0
 19 41  1  0  0  0  0
 20 21  2  0  0  0  0
 20 42  1  0  0  0  0
 21 22  1  0  0  0  0
 21 25  1  0  0  0  0
 22 23  2  0  0  0  0
 22 43  1  0  0  0  0
 23 44  1  0  0  0  0
 24 45  1  0  0  0  0
 24 46  1  0  0  0  0
M  END
