4ybi_ligand
 OpenBabel08222323353D

 37 39  0  0  1  0  0  0  0  0999 V2000
   23.5410   56.2190   86.5570 C   0  0  0  0  0  0  0  0  0  0  0  0
   25.9250   56.2330   86.1040 C   0  0  0  0  0  0  0  0  0  0  0  0
   23.3390   56.8050   85.3150 C   0  0  0  0  0  0  0  0  0  0  0  0
   24.3660   57.0860   84.4460 C   0  0  0  0  0  0  0  0  0  0  0  0
   25.6450   56.8010   84.8720 C   0  0  0  0  0  0  0  0  0  0  0  0
   26.6350   57.1000   84.0590 F   0  0  0  0  0  0  0  0  0  0  0  0
   22.1050   57.0900   84.9160 F   0  0  0  0  0  0  0  0  0  0  0  0
   24.8480   55.9400   86.9260 C   0  0  0  0  0  0  0  0  0  0  0  0
   22.3780   55.8930   87.4710 C   0  0  2  0  0  0  0  0  0  0  0  0
   21.3480   55.0390   86.7360 C   0  0  0  0  0  0  0  0  0  0  0  0
   21.6720   57.1430   87.9750 C   0  0  0  0  0  0  0  0  0  0  0  0
   22.5900   57.9800   88.8330 C   0  0  0  0  0  0  0  0  0  0  0  0
   23.0390   57.0270   90.3080 S   0  0  0  0  0  0  0  0  0  0  0  0
   22.9490   55.3570   89.7570 C   0  0  2  0  0  3  0  0  0  0  0  0
   22.6810   54.9670   88.5590 N   0  0  0  0  0  0  0  0  0  0  0  0
   23.1930   54.4560   90.7790 N   0  0  0  0  0  0  0  0  0  0  0  0
   27.2950   56.0170   86.5810 C   0  0  0  0  0  0  0  0  0  0  0  0
   27.7500   54.8650   87.1850 C   0  0  0  0  0  0  0  0  0  0  0  0
   28.9830   54.7060   87.6910 N   0  0  0  0  0  0  0  0  0  0  0  0
   29.7840   55.7750   87.6010 C   0  0  0  0  0  0  0  0  0  0  0  0
   29.4790   56.9460   87.0420 N   0  0  0  0  0  0  0  0  0  0  0  0
   28.2360   57.0290   86.5430 C   0  0  0  0  0  0  0  0  0  0  0  0
   24.1779   57.5134   83.4677 H   0  0  0  0  0  0  0  0  0  0  0  0
   25.0337   55.4777   87.8887 H   0  0  0  0  0  0  0  0  0  0  0  0
   20.5109   54.8111   87.4123 H   0  0  0  0  0  0  0  0  0  0  0  0
   21.8181   54.1010   86.4055 H   0  0  0  0  0  0  0  0  0  0  0  0
   20.9727   55.5894   85.8607 H   0  0  0  0  0  0  0  0  0  0  0  0
   20.7966   56.8451   88.5708 H   0  0  0  0  0  0  0  0  0  0  0  0
   21.3424   57.7412   87.1128 H   0  0  0  0  0  0  0  0  0  0  0  0
   22.0751   58.9047   89.1327 H   0  0  0  0  0  0  0  0  0  0  0  0
   23.4978   58.2331   88.2657 H   0  0  0  0  0  0  0  0  0  0  0  0
   22.6804   53.9565   88.3593 H   0  0  0  0  0  0  0  0  0  0  0  0
   23.1705   53.4438   90.5895 H   0  0  0  0  0  0  0  0  0  0  0  0
   23.3971   54.7977   91.7290 H   0  0  0  0  0  0  0  0  0  0  0  0
   27.0641   54.0286   87.2565 H   0  0  0  0  0  0  0  0  0  0  0  0
   30.7774   55.6789   88.0240 H   0  0  0  0  0  0  0  0  0  0  0  0
   27.9473   57.9624   86.0735 H   0  0  0  0  0  0  0  0  0  0  0  0
  1  3  2  0  0  0  0
  1  9  1  0  0  0  0
  2  5  1  0  0  0  0
  2  8  2  0  0  0  0
  2 17  1  0  0  0  0
  3  4  1  0  0  0  0
  3  7  1  0  0  0  0
  4  5  2  0  0  0  0
  4 23  1  0  0  0  0
  5  6  1  0  0  0  0
  8  1  1  0  0  0  0
  8 24  1  0  0  0  0
  9 10  1  6  0  0  0
  9 11  1  0  0  0  0
  9 15  1  0  0  0  0
 10 25  1  0  0  0  0
 10 26  1  0  0  0  0
 10 27  1  0  0  0  0
 11 12  1  0  0  0  0
 11 28  1  0  0  0  0
 11 29  1  0  0  0  0
 12 13  1  0  0  0  0
 12 30  1  0  0  0  0
 12 31  1  0  0  0  0
 13 14  1  0  0  0  0
 14 15  1  0  0  0  0
 14 16  1  1  0  0  0
 15 32  1  0  0  0  0
 16 33  1  0  0  0  0
 16 34  1  0  0  0  0
 17 18  2  0  0  0  0
 17 22  1  0  0  0  0
 18 19  1  0  0  0  0
 18 35  1  0  0  0  0
 19 20  2  0  0  0  0
 20 21  1  0  0  0  0
 20 36  1  0  0  0  0
 21 22  2  0  0  0  0
 22 37  1  0  0  0  0
M  END
