4ycl_ligand
 OpenBabel08222323353D

 48 52  0  0  1  0  0  0  0  0999 V2000
   25.0180  -17.9540   15.6270 O   0  0  0  0  0  0  0  0  0  0  0  0
   25.0750  -17.6690   14.4050 C   0  0  0  0  0  0  0  0  0  0  0  0
   26.1220  -17.7680   13.3650 C   0  0  2  0  0  0  0  0  0  0  0  0
   27.4220  -18.4530   13.4790 C   0  0  0  0  0  0  0  0  0  0  0  0
   28.1780  -18.0680   14.3440 O   0  0  0  0  0  0  0  0  0  0  0  0
   28.0260  -19.2160   12.2540 C   0  0  0  0  0  0  0  0  0  0  0  0
   23.8280  -17.3920   13.5910 C   0  0  2  0  0  0  0  0  0  0  0  0
   22.9280  -18.5970   13.3540 C   0  0  1  0  0  0  0  0  0  0  0  0
   21.9010  -18.9400   14.4040 C   0  0  0  0  0  0  0  0  0  0  0  0
   21.7980  -19.8380   15.4100 C   0  0  0  0  0  0  0  0  0  0  0  0
   20.5640  -19.6650   16.0470 N   0  0  0  0  0  0  0  0  0  0  0  0
   19.8270  -18.6420   15.4640 C   0  0  0  0  0  0  0  0  0  0  0  0
   20.6880  -18.2050   14.4340 C   0  0  0  0  0  0  0  0  0  0  0  0
   18.5680  -18.0010   15.6270 C   0  0  0  0  0  0  0  0  0  0  0  0
   18.1770  -16.9290   14.7620 C   0  0  0  0  0  0  0  0  0  0  0  0
   19.0680  -16.5200   13.7430 C   0  0  0  0  0  0  0  0  0  0  0  0
   20.3190  -17.1680   13.5910 C   0  0  0  0  0  0  0  0  0  0  0  0
   21.3430  -16.8090   12.5390 C   0  0  0  0  0  0  0  0  0  0  0  0
   22.2480  -18.0230   12.0720 C   0  0  1  0  0  0  0  0  0  0  0  0
   23.4530  -17.5940   11.1540 C   0  0  0  0  0  0  0  0  0  0  0  0
   24.0010  -18.7080   10.2630 C   0  0  0  0  0  0  0  0  0  0  0  0
   23.2070  -16.3760   10.2820 C   0  0  0  0  0  0  0  0  0  0  0  0
   24.3570  -17.2210   12.2480 N   0  3  2  0  0  0  0  0  0  0  0  0
   25.6810  -17.0710   12.2950 C   0  0  2  0  0  0  0  0  0  0  0  0
   26.3800  -16.7710   11.1660 O   0  0  0  0  0  0  0  0  0  0  0  0
   25.7006  -18.7074   12.9777 H   0  0  0  0  0  0  0  0  0  0  0  0
   28.9933  -19.6567   12.5372 H   0  0  0  0  0  0  0  0  0  0  0  0
   28.1732  -18.5133   11.4206 H   0  0  0  0  0  0  0  0  0  0  0  0
   27.3363  -20.0145   11.9430 H   0  0  0  0  0  0  0  0  0  0  0  0
   23.2715  -16.5282   13.9837 H   0  0  0  0  0  0  0  0  0  0  0  0
   23.5227  -19.4995   13.1497 H   0  0  0  0  0  0  0  0  0  0  0  0
   22.5523  -20.5755   15.6803 H   0  0  0  0  0  0  0  0  0  0  0  0
   20.2423  -20.2264   16.8484 H   0  0  0  0  0  0  0  0  0  0  0  0
   17.8977  -18.3272   16.4140 H   0  0  0  0  0  0  0  0  0  0  0  0
   17.2171  -16.4407   14.8858 H   0  0  0  0  0  0  0  0  0  0  0  0
   18.7937  -15.7097   13.0772 H   0  0  0  0  0  0  0  0  0  0  0  0
   21.9994  -16.0273   12.9491 H   0  0  0  0  0  0  0  0  0  0  0  0
   20.8111  -16.4170   11.6595 H   0  0  0  0  0  0  0  0  0  0  0  0
   21.6293  -18.7778   11.5646 H   0  0  0  0  0  0  0  0  0  0  0  0
   24.8352  -18.3189    9.6608 H   0  0  0  0  0  0  0  0  0  0  0  0
   23.2045  -19.0693    9.5959 H   0  0  0  0  0  0  0  0  0  0  0  0
   24.3578  -19.5377   10.8909 H   0  0  0  0  0  0  0  0  0  0  0  0
   22.8111  -15.5566   10.8999 H   0  0  0  0  0  0  0  0  0  0  0  0
   22.4788  -16.6280    9.4970 H   0  0  0  0  0  0  0  0  0  0  0  0
   24.1528  -16.0607    9.8172 H   0  0  0  0  0  0  0  0  0  0  0  0
   24.1682  -16.2356   12.1507 H   0  0  0  0  0  0  0  0  0  0  0  0
   25.7359  -16.0624   12.7306 H   0  0  0  0  0  0  0  0  0  0  0  0
   27.3038  -16.7003   11.3762 H   0  0  0  0  0  0  0  0  0  0  0  0
  1  2  2  0  0  0  0
  2  3  1  0  0  0  0
  2  7  1  0  0  0  0
  3  4  1  0  0  0  0
  3 24  1  0  0  0  0
  3 26  1  6  0  0  0
  4  5  2  0  0  0  0
  4  6  1  0  0  0  0
  6 27  1  0  0  0  0
  6 28  1  0  0  0  0
  6 29  1  0  0  0  0
  7  8  1  0  0  0  0
  7 23  1  0  0  0  0
  7 30  1  1  0  0  0
  8  9  1  0  0  0  0
  8 19  1  0  0  0  0
  8 31  1  6  0  0  0
  9 10  2  0  0  0  0
  9 13  1  0  0  0  0
 10 11  1  0  0  0  0
 10 32  1  0  0  0  0
 11 12  1  0  0  0  0
 11 33  1  0  0  0  0
 12 13  2  0  0  0  0
 12 14  1  0  0  0  0
 13 17  1  0  0  0  0
 14 15  2  0  0  0  0
 14 34  1  0  0  0  0
 15 16  1  0  0  0  0
 15 35  1  0  0  0  0
 16 17  2  0  0  0  0
 16 36  1  0  0  0  0
 17 18  1  0  0  0  0
 18 19  1  0  0  0  0
 18 37  1  0  0  0  0
 18 38  1  0  0  0  0
 19 20  1  0  0  0  0
 19 39  1  6  0  0  0
 20 21  1  0  0  0  0
 20 22  1  0  0  0  0
 20 23  1  0  0  0  0
 21 40  1  0  0  0  0
 21 41  1  0  0  0  0
 21 42  1  0  0  0  0
 22 43  1  0  0  0  0
 22 44  1  0  0  0  0
 22 45  1  0  0  0  0
 23 24  1  0  0  0  0
 23 46  1  6  0  0  0
 24 25  1  0  0  0  0
 24 47  1  1  0  0  0
 25 48  1  0  0  0  0
M  CHG  1  23   1
M  END
