4ycw_ligand
 OpenBabel08222323353D

 41 43  0  0  1  0  0  0  0  0999 V2000
    6.1330    9.9590  -11.3690 O   0  0  0  0  0  0  0  0  0  0  0  0
    6.7280    9.3570  -12.2470 C   0  0  0  0  0  0  0  0  0  0  0  0
    8.2020    9.1190  -12.1670 C   0  0  0  0  0  0  0  0  0  0  0  0
    8.8730    8.4580  -13.3030 C   0  0  0  0  0  0  0  0  0  0  0  0
   10.2440    8.2370  -13.2430 C   0  0  0  0  0  0  0  0  0  0  0  0
   10.9820    8.6260  -12.1240 C   0  0  0  0  0  0  0  0  0  0  0  0
   12.3230    8.3890  -12.1010 O   0  0  0  0  0  0  0  0  0  0  0  0
   10.3860    9.2540  -11.0290 C   0  0  0  0  0  0  0  0  0  0  0  0
    9.0210    9.5200  -11.0010 C   0  0  0  0  0  0  0  0  0  0  0  0
    8.4480   10.1330   -9.9280 O   0  0  0  0  0  0  0  0  0  0  0  0
    6.0030    8.8740  -13.4130 O   0  0  0  0  0  0  0  0  0  0  0  0
    6.6240    7.7350  -14.0180 C   0  0  2  0  0  0  0  0  0  0  0  0
    8.0430    8.0490  -14.4950 C   0  0  0  0  0  0  0  0  0  0  0  0
    5.7740    7.2720  -15.1970 C   0  0  0  0  0  0  0  0  0  0  0  0
    4.3780    6.8750  -14.7230 C   0  0  2  0  0  0  0  0  0  0  0  0
    4.4510    5.6970  -13.9140 O   0  0  0  0  0  0  0  0  0  0  0  0
    4.9450    4.5540  -14.6150 C   0  0  1  0  0  0  0  0  0  0  0  0
    5.1120    3.3890  -13.6460 C   0  0  0  0  0  0  0  0  0  0  0  0
    3.9890    4.1980  -15.7450 C   0  0  0  0  0  0  0  0  0  0  0  0
    3.8570    5.3850  -16.6900 C   0  0  0  0  0  0  0  0  0  0  0  0
    3.4580    6.6360  -15.9180 C   0  0  0  0  0  0  0  0  0  0  0  0
   10.7460    7.7568  -14.0752 H   0  0  0  0  0  0  0  0  0  0  0  0
   12.7358    8.8408  -12.8277 H   0  0  0  0  0  0  0  0  0  0  0  0
   10.9999    9.5404  -10.1827 H   0  0  0  0  0  0  0  0  0  0  0  0
    7.5159   10.2328  -10.0822 H   0  0  0  0  0  0  0  0  0  0  0  0
    6.6766    6.9265  -13.2740 H   0  0  0  0  0  0  0  0  0  0  0  0
    8.4824    7.1560  -14.9635 H   0  0  0  0  0  0  0  0  0  0  0  0
    8.0147    8.8704  -15.2261 H   0  0  0  0  0  0  0  0  0  0  0  0
    6.2555    6.4049  -15.6726 H   0  0  0  0  0  0  0  0  0  0  0  0
    5.6898    8.0907  -15.9268 H   0  0  0  0  0  0  0  0  0  0  0  0
    3.9642    7.6950  -14.1178 H   0  0  0  0  0  0  0  0  0  0  0  0
    5.9272    4.7959  -15.0472 H   0  0  0  0  0  0  0  0  0  0  0  0
    5.4923    2.5116  -14.1896 H   0  0  0  0  0  0  0  0  0  0  0  0
    4.1394    3.1464  -13.1931 H   0  0  0  0  0  0  0  0  0  0  0  0
    5.8249    3.6683  -12.8562 H   0  0  0  0  0  0  0  0  0  0  0  0
    3.0022    3.9508  -15.3265 H   0  0  0  0  0  0  0  0  0  0  0  0
    4.3806    3.3312  -16.2974 H   0  0  0  0  0  0  0  0  0  0  0  0
    3.0877    5.1639  -17.4445 H   0  0  0  0  0  0  0  0  0  0  0  0
    4.8213    5.5596  -17.1897 H   0  0  0  0  0  0  0  0  0  0  0  0
    3.5140    7.5041  -16.5912 H   0  0  0  0  0  0  0  0  0  0  0  0
    2.4259    6.5184  -15.5563 H   0  0  0  0  0  0  0  0  0  0  0  0
  1  2  2  0  0  0  0
  2  3  1  0  0  0  0
  2 11  1  0  0  0  0
  3  4  2  0  0  0  0
  3  9  1  0  0  0  0
  4  5  1  0  0  0  0
  4 13  1  0  0  0  0
  5  6  2  0  0  0  0
  5 22  1  0  0  0  0
  6  7  1  0  0  0  0
  6  8  1  0  0  0  0
  7 23  1  0  0  0  0
  8  9  2  0  0  0  0
  8 24  1  0  0  0  0
  9 10  1  0  0  0  0
 10 25  1  0  0  0  0
 11 12  1  0  0  0  0
 12 13  1  0  0  0  0
 12 14  1  0  0  0  0
 12 26  1  1  0  0  0
 13 27  1  0  0  0  0
 13 28  1  0  0  0  0
 14 15  1  0  0  0  0
 14 29  1  0  0  0  0
 14 30  1  0  0  0  0
 15 16  1  0  0  0  0
 15 21  1  0  0  0  0
 15 31  1  1  0  0  0
 16 17  1  0  0  0  0
 17 18  1  0  0  0  0
 17 19  1  0  0  0  0
 17 32  1  6  0  0  0
 18 33  1  0  0  0  0
 18 34  1  0  0  0  0
 18 35  1  0  0  0  0
 19 20  1  0  0  0  0
 19 36  1  0  0  0  0
 19 37  1  0  0  0  0
 20 21  1  0  0  0  0
 20 38  1  0  0  0  0
 20 39  1  0  0  0  0
 21 40  1  0  0  0  0
 21 41  1  0  0  0  0
M  END
