4yff_ligand
 OpenBabel08222323353D

 47 50  0  0  0  0  0  0  0  0999 V2000
   46.6320    9.4650   84.2960 C   0  0  0  0  0  0  0  0  0  0  0  0
   43.9440    7.0170   84.8530 C   0  0  0  0  0  0  0  0  0  0  0  0
   44.1350    7.3740   82.5380 C   0  0  0  0  0  0  0  0  0  0  0  0
   47.7240    9.2730   85.1380 C   0  0  0  0  0  0  0  0  0  0  0  0
   50.3430    8.0900   88.3730 C   0  0  0  0  0  0  0  0  0  0  0  0
   48.0310    5.1160   87.0050 C   0  0  0  0  0  0  0  0  0  0  0  0
   48.7230    6.3330   87.2790 C   0  0  0  0  0  0  0  0  0  0  0  0
   51.7810   12.4030   84.1080 C   0  0  0  0  0  0  0  0  0  0  0  0
   50.9210   12.1840   85.2890 N   0  0  0  0  0  0  0  0  0  0  0  0
   49.3670   12.9250   85.2010 S   0  0  0  0  0  0  0  0  0  0  0  0
   49.0060   13.3050   86.5580 O   0  0  0  0  0  0  0  0  0  0  0  0
   49.2430   13.8570   84.0810 O   0  0  0  0  0  0  0  0  0  0  0  0
   48.3090   11.5620   84.8380 C   0  0  0  0  0  0  0  0  0  0  0  0
   47.2440   11.7730   84.0010 C   0  0  0  0  0  0  0  0  0  0  0  0
   46.4010   10.7120   83.7360 C   0  0  0  0  0  0  0  0  0  0  0  0
   45.7570    8.3860   84.0140 N   0  0  0  0  0  0  0  0  0  0  0  0
   44.8610    8.1890   85.1540 C   0  0  0  0  0  0  0  0  0  0  0  0
   43.2250    7.2620   83.6400 O   0  0  0  0  0  0  0  0  0  0  0  0
   45.0400    8.5780   82.7560 C   0  0  0  0  0  0  0  0  0  0  0  0
   47.9380    7.9890   85.6860 N   0  0  0  0  0  0  0  0  0  0  0  0
   48.7590    7.6300   86.7680 C   0  0  0  0  0  0  0  0  0  0  0  0
   49.5970    8.5000   87.3410 N   0  0  0  0  0  0  0  0  0  0  0  0
   50.3920    6.8880   88.9590 N   0  0  0  0  0  0  0  0  0  0  0  0
   49.5490    6.0460   88.3530 C   0  0  0  0  0  0  0  0  0  0  0  0
   49.3640    4.7370   88.7030 N   0  0  0  0  0  0  0  0  0  0  0  0
   48.4370    4.1510   87.8880 C   0  0  0  0  0  0  0  0  0  0  0  0
   46.7430    4.8400   85.6340 Br  0  0  0  0  0  0  0  0  0  0  0  0
   48.5660   10.3380   85.4070 C   0  0  0  0  0  0  0  0  0  0  0  0
   43.2308    6.8896   85.6807 H   0  0  0  0  0  0  0  0  0  0  0  0
   44.5449    6.1023   84.7427 H   0  0  0  0  0  0  0  0  0  0  0  0
   43.5679    7.5044   81.6045 H   0  0  0  0  0  0  0  0  0  0  0  0
   44.7461    6.4618   82.4715 H   0  0  0  0  0  0  0  0  0  0  0  0
   51.0027    8.8393   88.7953 H   0  0  0  0  0  0  0  0  0  0  0  0
   52.7451   11.8949   84.2572 H   0  0  0  0  0  0  0  0  0  0  0  0
   51.9518   13.4813   83.9737 H   0  0  0  0  0  0  0  0  0  0  0  0
   51.2865   11.9958   83.2137 H   0  0  0  0  0  0  0  0  0  0  0  0
   51.2175   11.6471   86.0788 H   0  0  0  0  0  0  0  0  0  0  0  0
   47.0683   12.7470   83.5589 H   0  0  0  0  0  0  0  0  0  0  0  0
   45.5484   10.8558   83.0823 H   0  0  0  0  0  0  0  0  0  0  0  0
   45.4518    7.9749   86.0568 H   0  0  0  0  0  0  0  0  0  0  0  0
   44.2612    9.0969   85.3150 H   0  0  0  0  0  0  0  0  0  0  0  0
   44.4344    9.4948   82.8084 H   0  0  0  0  0  0  0  0  0  0  0  0
   45.7579    8.6596   81.9266 H   0  0  0  0  0  0  0  0  0  0  0  0
   47.4268    7.2171   85.2346 H   0  0  0  0  0  0  0  0  0  0  0  0
   48.0895    3.1199   87.9319 H   0  0  0  0  0  0  0  0  0  0  0  0
   49.4207   10.2076   86.0608 H   0  0  0  0  0  0  0  0  0  0  0  0
   49.8545    4.2599   89.4728 H   0  0  0  0  0  0  0  0  0  0  0  0
  1 15  1  0  0  0  0
  1 16  1  0  0  0  0
  2 18  1  0  0  0  0
  2 29  1  0  0  0  0
  2 30  1  0  0  0  0
  3 18  1  0  0  0  0
  3 31  1  0  0  0  0
  3 32  1  0  0  0  0
  4  1  2  0  0  0  0
  4 28  1  0  0  0  0
  5 23  1  0  0  0  0
  5 33  1  0  0  0  0
  6 26  2  0  0  0  0
  6 27  1  0  0  0  0
  7  6  1  0  0  0  0
  7 24  1  0  0  0  0
  8 34  1  0  0  0  0
  8 35  1  0  0  0  0
  8 36  1  0  0  0  0
  9  8  1  0  0  0  0
  9 37  1  0  0  0  0
 10  9  1  0  0  0  0
 10 11  2  0  0  0  0
 10 12  2  0  0  0  0
 13 10  1  0  0  0  0
 13 14  1  0  0  0  0
 14 38  1  0  0  0  0
 15 14  2  0  0  0  0
 15 39  1  0  0  0  0
 16 17  1  0  0  0  0
 16 19  1  0  0  0  0
 17  2  1  0  0  0  0
 17 40  1  0  0  0  0
 17 41  1  0  0  0  0
 19  3  1  0  0  0  0
 19 42  1  0  0  0  0
 19 43  1  0  0  0  0
 20  4  1  0  0  0  0
 20 44  1  0  0  0  0
 21  7  2  0  0  0  0
 21 20  1  0  0  0  0
 21 22  1  0  0  0  0
 22  5  2  0  0  0  0
 23 24  2  0  0  0  0
 24 25  1  0  0  0  0
 25 26  1  0  0  0  0
 25 47  1  0  0  0  0
 26 45  1  0  0  0  0
 28 13  2  0  0  0  0
 28 46  1  0  0  0  0
M  END
