4yjn_ligand
 OpenBabel08222323353D

 53 56  0  0  0  0  0  0  0  0999 V2000
   -2.9130  -24.0340  -30.8140 O   0  0  0  0  0  0  0  0  0  0  0  0
   -1.9290  -23.2830  -30.9220 C   0  0  0  0  0  0  0  0  0  0  0  0
   -0.7300  -23.7540  -31.2340 N   0  0  0  0  0  0  0  0  0  0  0  0
   -2.0770  -21.8630  -30.6440 C   0  0  0  0  0  0  0  0  0  0  0  0
   -3.2350  -21.2630  -30.1590 C   0  0  0  0  0  0  0  0  0  0  0  0
   -4.3910  -21.8690  -29.8550 N   0  0  0  0  0  0  0  0  0  0  0  0
   -2.9800  -19.9440  -30.0560 N   0  0  0  0  0  0  0  0  0  0  0  0
   -3.8460  -18.8120  -29.5640 C   0  0  0  0  0  0  0  0  0  0  0  0
   -2.9820  -17.6440  -29.1040 C   0  0  0  0  0  0  0  0  0  0  0  0
   -4.7180  -18.3350  -30.7140 C   0  0  0  0  0  0  0  0  0  0  0  0
   -4.7140  -19.3020  -28.4080 C   0  0  0  0  0  0  0  0  0  0  0  0
   -1.1500  -20.8180  -30.8050 C   0  0  0  0  0  0  0  0  0  0  0  0
   -1.6780  -19.6400  -30.4800 N   0  0  0  0  0  0  0  0  0  0  0  0
    0.2780  -20.8840  -31.1480 C   0  0  0  0  0  0  0  0  0  0  0  0
    1.2110  -20.2790  -30.3160 C   0  0  0  0  0  0  0  0  0  0  0  0
    2.5330  -20.2850  -30.6250 C   0  0  0  0  0  0  0  0  0  0  0  0
    2.9970  -20.9110  -31.7990 C   0  0  0  0  0  0  0  0  0  0  0  0
    4.3380  -20.9020  -32.0660 N   0  0  0  0  0  0  0  0  0  0  0  0
    4.7170  -21.5300  -33.1430 C   0  0  0  0  0  0  0  0  0  0  0  0
    3.8840  -22.1570  -34.0620 C   0  0  0  0  0  0  0  0  0  0  0  0
    2.5560  -22.1550  -33.8090 C   0  0  0  0  0  0  0  0  0  0  0  0
    2.0650  -21.5360  -32.6500 C   0  0  0  0  0  0  0  0  0  0  0  0
    0.6960  -21.5070  -32.2940 C   0  0  0  0  0  0  0  0  0  0  0  0
    6.0260  -21.7330  -33.3750 O   0  0  0  0  0  0  0  0  0  0  0  0
    6.9240  -21.5720  -32.2340 C   0  0  0  0  0  0  0  0  0  0  0  0
    8.3820  -21.8950  -32.5650 C   0  0  0  0  0  0  0  0  0  0  0  0
    8.7720  -20.5710  -31.9000 C   0  0  0  0  0  0  0  0  0  0  0  0
    7.2960  -20.1140  -31.9640 C   0  0  0  0  0  0  0  0  0  0  0  0
    0.0469  -23.1296  -31.3152 H   0  0  0  0  0  0  0  0  0  0  0  0
   -0.6023  -24.7337  -31.3882 H   0  0  0  0  0  0  0  0  0  0  0  0
   -4.4839  -22.8884  -29.9698 H   0  0  0  0  0  0  0  0  0  0  0  0
   -5.1866  -21.3154  -29.5065 H   0  0  0  0  0  0  0  0  0  0  0  0
   -3.6280  -16.8277  -28.7486 H   0  0  0  0  0  0  0  0  0  0  0  0
   -2.3697  -17.2872  -29.9453 H   0  0  0  0  0  0  0  0  0  0  0  0
   -2.3247  -17.9739  -28.2860 H   0  0  0  0  0  0  0  0  0  0  0  0
   -5.3569  -17.5079  -30.3710 H   0  0  0  0  0  0  0  0  0  0  0  0
   -5.3492  -19.1649  -31.0643 H   0  0  0  0  0  0  0  0  0  0  0  0
   -4.0789  -17.9869  -31.5389 H   0  0  0  0  0  0  0  0  0  0  0  0
   -5.3461  -18.4766  -28.0486 H   0  0  0  0  0  0  0  0  0  0  0  0
   -4.0695  -19.6537  -27.5889 H   0  0  0  0  0  0  0  0  0  0  0  0
   -5.3521  -20.1288  -28.7534 H   0  0  0  0  0  0  0  0  0  0  0  0
    0.8784  -19.7942  -29.4053 H   0  0  0  0  0  0  0  0  0  0  0  0
    3.2403  -19.8023  -29.9604 H   0  0  0  0  0  0  0  0  0  0  0  0
    4.2851  -22.6310  -34.9505 H   0  0  0  0  0  0  0  0  0  0  0  0
    1.8712  -22.6314  -34.5012 H   0  0  0  0  0  0  0  0  0  0  0  0
   -0.0332  -21.9851  -32.9380 H   0  0  0  0  0  0  0  0  0  0  0  0
    6.5254  -22.1096  -31.3610 H   0  0  0  0  0  0  0  0  0  0  0  0
    8.6049  -21.9486  -33.6408 H   0  0  0  0  0  0  0  0  0  0  0  0
    8.7763  -22.7912  -32.0637 H   0  0  0  0  0  0  0  0  0  0  0  0
    9.4607  -19.9537  -32.4955 H   0  0  0  0  0  0  0  0  0  0  0  0
    9.1661  -20.6789  -30.8787 H   0  0  0  0  0  0  0  0  0  0  0  0
    6.9009  -19.7070  -31.0216 H   0  0  0  0  0  0  0  0  0  0  0  0
    7.0657  -19.4220  -32.7875 H   0  0  0  0  0  0  0  0  0  0  0  0
  1  2  2  0  0  0  0
  2  3  1  0  0  0  0
  2  4  1  0  0  0  0
  3 29  1  0  0  0  0
  3 30  1  0  0  0  0
  4  5  2  0  0  0  0
  4 12  1  0  0  0  0
  5  6  1  0  0  0  0
  5  7  1  0  0  0  0
  6 31  1  0  0  0  0
  6 32  1  0  0  0  0
  7  8  1  0  0  0  0
  7 13  1  0  0  0  0
  8  9  1  0  0  0  0
  8 10  1  0  0  0  0
  8 11  1  0  0  0  0
  9 33  1  0  0  0  0
  9 34  1  0  0  0  0
  9 35  1  0  0  0  0
 10 36  1  0  0  0  0
 10 37  1  0  0  0  0
 10 38  1  0  0  0  0
 11 39  1  0  0  0  0
 11 40  1  0  0  0  0
 11 41  1  0  0  0  0
 12 13  2  0  0  0  0
 12 14  1  0  0  0  0
 14 15  2  0  0  0  0
 14 23  1  0  0  0  0
 15 16  1  0  0  0  0
 15 42  1  0  0  0  0
 16 17  2  0  0  0  0
 16 43  1  0  0  0  0
 17 18  1  0  0  0  0
 17 22  1  0  0  0  0
 18 19  2  0  0  0  0
 19 20  1  0  0  0  0
 19 24  1  0  0  0  0
 20 21  2  0  0  0  0
 20 44  1  0  0  0  0
 21 22  1  0  0  0  0
 21 45  1  0  0  0  0
 22 23  2  0  0  0  0
 23 46  1  0  0  0  0
 24 25  1  0  0  0  0
 25 26  1  0  0  0  0
 25 28  1  0  0  0  0
 25 47  1  0  0  0  0
 26 27  1  0  0  0  0
 26 48  1  0  0  0  0
 26 49  1  0  0  0  0
 27 28  1  0  0  0  0
 27 50  1  0  0  0  0
 27 51  1  0  0  0  0
 28 52  1  0  0  0  0
 28 53  1  0  0  0  0
M  END
