4ylk_ligand
 OpenBabel08222323353D

 29 32  0  0  0  0  0  0  0  0999 V2000
   20.7800   52.8510   34.1340 O   0  5  0  0  0  0  0  0  0  0  0  0
   20.1140   52.6970   35.2300 C   0  0  0  0  0  0  0  0  0  0  0  0
   20.1570   53.1630   36.3980 O   0  0  0  0  0  0  0  0  0  0  0  0
   19.3630   51.5910   35.2260 C   0  0  0  0  0  0  0  0  0  0  0  0
   19.7180   50.8270   34.1040 N   0  0  0  0  0  0  0  0  0  0  0  0
   19.1700   49.5850   33.9790 C   0  0  0  0  0  0  0  0  0  0  0  0
   19.5370   48.7250   32.9480 C   0  0  0  0  0  0  0  0  0  0  0  0
   18.9550   47.4790   32.8400 C   0  0  0  0  0  0  0  0  0  0  0  0
   17.9910   47.1180   33.7590 C   0  0  0  0  0  0  0  0  0  0  0  0
   17.0760   45.2670   33.5590 I   0  0  0  0  0  0  0  0  0  0  0  0
   17.6260   47.9720   34.7980 C   0  0  0  0  0  0  0  0  0  0  0  0
   18.2080   49.2160   34.9020 C   0  0  0  0  0  0  0  0  0  0  0  0
   17.8270   50.0740   35.9440 C   0  0  0  0  0  0  0  0  0  0  0  0
   18.3620   51.2810   36.2130 C   0  0  0  0  0  0  0  0  0  0  0  0
   17.6750   51.7890   37.3730 C   0  0  0  0  0  0  0  0  0  0  0  0
   17.7300   52.9650   38.1630 C   0  0  0  0  0  0  0  0  0  0  0  0
   16.8440   53.0830   39.2580 C   0  0  0  0  0  0  0  0  0  0  0  0
   15.9280   52.0850   39.5830 C   0  0  0  0  0  0  0  0  0  0  0  0
   15.8650   50.9410   38.8060 C   0  0  0  0  0  0  0  0  0  0  0  0
   14.7130   49.6320   39.1530 Cl  0  0  0  0  0  0  0  0  0  0  0  0
   16.7290   50.8240   37.7270 C   0  0  0  0  0  0  0  0  0  0  0  0
   16.8620   49.8000   36.8310 N   0  0  0  0  0  0  0  0  0  0  0  0
   20.2838   49.0359   32.2264 H   0  0  0  0  0  0  0  0  0  0  0  0
   19.2488   46.7977   32.0497 H   0  0  0  0  0  0  0  0  0  0  0  0
   16.8847   47.6575   35.5237 H   0  0  0  0  0  0  0  0  0  0  0  0
   18.4352   53.7554   37.9326 H   0  0  0  0  0  0  0  0  0  0  0  0
   16.8785   53.9803   39.8653 H   0  0  0  0  0  0  0  0  0  0  0  0
   15.2705   52.2032   40.4367 H   0  0  0  0  0  0  0  0  0  0  0  0
   16.2984   48.9379   36.8374 H   0  0  0  0  0  0  0  0  0  0  0  0
  1  2  1  0  0  0  0
  2  3  2  0  0  0  0
  2  4  1  0  0  0  0
  4  5  2  0  0  0  0
  4 14  1  0  0  0  0
  5  6  1  0  0  0  0
  6  7  2  0  0  0  0
  6 12  1  0  0  0  0
  7  8  1  0  0  0  0
  7 23  1  0  0  0  0
  8  9  2  0  0  0  0
  8 24  1  0  0  0  0
  9 10  1  0  0  0  0
  9 11  1  0  0  0  0
 11 12  2  0  0  0  0
 11 25  1  0  0  0  0
 12 13  1  0  0  0  0
 13 14  2  0  0  0  0
 13 22  1  0  0  0  0
 14 15  1  0  0  0  0
 15 16  2  0  0  0  0
 15 21  1  0  0  0  0
 16 17  1  0  0  0  0
 16 26  1  0  0  0  0
 17 18  2  0  0  0  0
 17 27  1  0  0  0  0
 18 19  1  0  0  0  0
 18 28  1  0  0  0  0
 19 20  1  0  0  0  0
 19 21  2  0  0  0  0
 21 22  1  0  0  0  0
 22 29  1  0  0  0  0
M  CHG  1   1  -1
M  END
