4ym4_ligand
 OpenBabel08222323353D

171171  0  0  1  0  0  0  0  0999 V2000
   48.6760   15.4370    5.5650 N   0  3  0  0  0  0  0  0  0  0  0  0
   48.7610   14.0670    5.1020 C   0  0  2  0  0  0  0  0  0  0  0  0
   48.3550   13.1460    6.2100 C   0  0  0  0  0  0  0  0  0  0  0  0
   48.2210   13.5720    7.3250 O   0  0  0  0  0  0  0  0  0  0  0  0
   50.1770   13.7250    4.6300 C   0  0  0  0  0  0  0  0  0  0  0  0
   51.2550   14.7000    5.0690 C   0  0  0  0  0  0  0  0  0  0  0  0
   52.7940   14.5810    4.1790 S   0  0  0  0  0  0  0  0  0  0  0  0
   52.2660   13.8150    2.6880 C   0  0  0  0  0  0  0  0  0  0  0  0
   48.1430   11.8880    5.8620 N   0  0  0  0  0  0  0  0  0  0  0  0
   47.6530   10.8360    6.7430 C   0  0  2  0  0  0  0  0  0  0  0  0
   48.6960   10.3420    7.7280 C   0  0  0  0  0  0  0  0  0  0  0  0
   49.8360   10.2430    7.3730 O   0  0  0  0  0  0  0  0  0  0  0  0
   47.0290    9.7120    5.8690 C   0  0  2  0  0  0  0  0  0  0  0  0
   45.6130    9.6770    6.0690 O   0  0  0  0  0  0  0  0  0  0  0  0
   47.6200    8.2990    6.0760 C   0  0  0  0  0  0  0  0  0  0  0  0
   48.2940    9.9900    8.9410 N   0  0  0  0  0  0  0  0  0  0  0  0
   49.2140    9.3960    9.9070 C   0  0  2  0  0  0  0  0  0  0  0  0
   48.8570    7.9380   10.0250 C   0  0  0  0  0  0  0  0  0  0  0  0
   47.7380    7.6240   10.3630 O   0  0  0  0  0  0  0  0  0  0  0  0
   49.0480   10.0630   11.2570 C   0  0  0  0  0  0  0  0  0  0  0  0
   49.5220    9.2420   12.2940 O   0  0  0  0  0  0  0  0  0  0  0  0
   49.7930    7.0540    9.7030 N   0  0  0  0  0  0  0  0  0  0  0  0
   49.4760    5.6480    9.5030 C   0  0  2  0  0  0  0  0  0  0  0  0
   49.0700    4.7640   10.6530 C   0  0  0  0  0  0  0  0  0  0  0  0
   48.0910    4.0680   10.5650 O   0  0  0  0  0  0  0  0  0  0  0  0
   50.6700    4.9900    8.8840 C   0  0  0  0  0  0  0  0  0  0  0  0
   50.3310    3.8450    8.0190 C   0  0  0  0  0  0  0  0  0  0  0  0
   49.5510    4.0290    6.9210 C   0  0  0  0  0  0  0  0  0  0  0  0
   50.7950    2.5950    8.3010 C   0  0  0  0  0  0  0  0  0  0  0  0
   49.2400    2.9900    6.1040 C   0  0  0  0  0  0  0  0  0  0  0  0
   50.4890    1.5530    7.4960 C   0  0  0  0  0  0  0  0  0  0  0  0
   49.7070    1.7520    6.3970 C   0  0  0  0  0  0  0  0  0  0  0  0
   49.8520    4.7230   11.7050 N   0  0  0  0  0  0  0  0  0  0  0  0
   49.5190    3.8620   12.8070 C   0  0  2  0  0  0  0  0  0  0  0  0
   48.2230    4.2820   13.4510 C   0  0  0  0  0  0  0  0  0  0  0  0
   47.5070    3.4550   13.9440 O   0  0  0  0  0  0  0  0  0  0  0  0
   50.6490    3.7490   13.8160 C   0  0  0  0  0  0  0  0  0  0  0  0
   52.0470    3.7450   13.2310 C   0  0  0  0  0  0  0  0  0  0  0  0
   52.6360    2.3640   13.0630 C   0  0  0  0  0  0  0  0  0  0  0  0
   53.1440    1.7760   14.0380 O   0  5  0  0  0  0  0  0  0  0  0  0
   52.6100    1.8700   11.9300 O   0  0  0  0  0  0  0  0  0  0  0  0
   47.9380    5.5730   13.5110 N   0  0  0  0  0  0  0  0  0  0  0  0
   46.7320    6.0670   14.1710 C   0  0  2  0  0  0  0  0  0  0  0  0
   45.4630    6.1890   13.3420 C   0  0  0  0  0  0  0  0  0  0  0  0
   44.4050    6.4430   13.8940 O   0  0  0  0  0  0  0  0  0  0  0  0
   46.9680    7.4370   14.8020 C   0  0  0  0  0  0  0  0  0  0  0  0
   48.4020    7.6840   15.1620 C   0  0  0  0  0  0  0  0  0  0  0  0
   49.1000    6.7090   15.4500 O   0  5  0  0  0  0  0  0  0  0  0  0
   48.8290    8.8500   15.1490 O   0  0  0  0  0  0  0  0  0  0  0  0
   45.5530    6.0510   12.0360 N   0  0  0  0  0  0  0  0  0  0  0  0
   44.4020    6.2850   11.1990 C   0  0  2  0  0  0  0  0  0  0  0  0
   43.2490    5.4020   11.5810 C   0  0  0  0  0  0  0  0  0  0  0  0
   43.4160    4.4480   12.2910 O   0  0  0  0  0  0  0  0  0  0  0  0
   44.7660    6.0580    9.7690 C   0  0  0  0  0  0  0  0  0  0  0  0
   42.0610    5.7210   11.1070 N   0  0  0  0  0  0  0  0  0  0  0  0
   40.9550    4.8010   11.2130 C   0  0  2  0  0  0  0  0  0  0  0  0
   41.2470    3.5900   10.3520 C   0  0  0  0  0  0  0  0  0  0  0  0
   42.1590    3.6070    9.5370 O   0  0  0  0  0  0  0  0  0  0  0  0
   39.6570    5.4680   10.7780 C   0  0  0  0  0  0  0  0  0  0  0  0
   39.2460    6.5940   11.6970 C   0  0  0  0  0  0  0  0  0  0  0  0
   39.4080    6.4560   12.9310 O   0  5  0  0  0  0  0  0  0  0  0  0
   38.7620    7.6210   11.1780 O   0  0  0  0  0  0  0  0  0  0  0  0
   40.4620    2.5480   10.5400 N   0  0  0  0  0  0  0  0  0  0  0  0
   40.6720    1.3130    9.8600 C   0  0  1  0  0  0  0  0  0  0  0  0
   40.2060    0.1960   10.7440 C   0  0  1  0  0  0  0  0  0  0  0  0
   40.3090   -1.0970    9.9850 C   0  0  0  0  0  0  0  0  0  0  0  0
   41.0690    0.1310   11.8380 O   0  0  0  0  0  0  0  0  0  0  0  0
   40.5070    0.1710   13.2720 P   0  0  0  0  0  0  0  0  0  0  0  0
   41.5700    0.6630   14.1360 O   0  0  0  0  0  1  0  0  0  0  0  0
   39.3780    1.0770   13.1610 O   0  0  0  0  0  1  0  0  0  0  0  0
   40.2050   -1.2300   13.5150 O   0  0  0  0  0  0  0  0  0  0  0  0
   39.8200    1.4760    8.6840 C   0  0  0  0  0  0  0  0  0  0  0  0
   38.7840    2.1100    8.7930 O   0  0  0  0  0  0  0  0  0  0  0  0
   40.2410    0.9610    7.5560 N   0  0  0  0  0  0  0  0  0  0  0  0
   39.6090    1.2670    6.3200 C   0  0  2  0  0  0  0  0  0  0  0  0
   39.0250   -0.0090    5.8540 C   0  0  0  0  0  0  0  0  0  0  0  0
   39.6680   -1.0170    5.8960 O   0  0  0  0  0  0  0  0  0  0  0  0
   40.6620    1.7630    5.3390 C   0  0  0  0  0  0  0  0  0  0  0  0
   40.3880    1.5110    3.8660 C   0  0  0  0  0  0  0  0  0  0  0  0
   41.6430    1.2880    3.0500 C   0  0  0  0  0  0  0  0  0  0  0  0
   42.5570    2.1210    3.1410 O   0  5  0  0  0  0  0  0  0  0  0  0
   41.7140    0.2910    2.3080 O   0  0  0  0  0  0  0  0  0  0  0  0
   37.7930    0.0320    5.3980 N   0  0  0  0  0  0  0  0  0  0  0  0
   37.1660   -1.1540    4.8910 C   0  0  2  0  0  0  0  0  0  0  0  0
   37.0500   -1.0030    3.4120 C   0  0  0  0  0  0  0  0  0  0  0  0
   36.8630    0.0930    2.9200 O   0  0  0  0  0  0  0  0  0  0  0  0
   35.7910   -1.3250    5.4760 C   0  0  0  0  0  0  0  0  0  0  0  0
   34.9930   -2.4110    4.8000 C   0  0  0  0  0  0  0  0  0  0  0  0
   35.7580   -3.7030    4.7160 C   0  0  0  0  0  0  0  0  0  0  0  0
   36.0980   -4.1130    3.5940 O   0  5  0  0  0  0  0  0  0  0  0  0
   36.0300   -4.3010    5.7730 O   0  0  0  0  0  0  0  0  0  0  0  0
   37.1880   -2.1120    2.7010 N   0  0  0  0  0  0  0  0  0  0  0  0
   37.0410   -2.1350    1.2580 C   0  0  2  0  0  0  0  0  0  0  0  0
   37.6020   -3.4310    0.7260 C   0  0  0  0  0  0  0  0  0  0  0  0
   37.3200   -4.4860    1.2710 O   0  5  0  0  0  0  0  0  0  0  0  0
   37.7600   -0.9590    0.5970 C   0  0  0  0  0  0  0  0  0  0  0  0
   38.3370   -3.4220   -0.2480 O   0  0  0  0  0  0  0  0  0  0  0  0
   48.9487   16.0605    4.8214 H   0  0  0  0  0  0  0  0  0  0  0  0
   49.2917   15.5642    6.3529 H   0  0  0  0  0  0  0  0  0  0  0  0
   47.7285   15.6396    5.8428 H   0  0  0  0  0  0  0  0  0  0  0  0
   48.0692   13.9367    4.2568 H   0  0  0  0  0  0  0  0  0  0  0  0
   50.1719   13.6951    3.5304 H   0  0  0  0  0  0  0  0  0  0  0  0
   50.4364   12.7308    5.0227 H   0  0  0  0  0  0  0  0  0  0  0  0
   51.4631   14.5202    6.1341 H   0  0  0  0  0  0  0  0  0  0  0  0
   50.8647   15.7201    4.9387 H   0  0  0  0  0  0  0  0  0  0  0  0
   53.1303   13.6737    2.0224 H   0  0  0  0  0  0  0  0  0  0  0  0
   51.5212   14.4541    2.1912 H   0  0  0  0  0  0  0  0  0  0  0  0
   51.8161   12.8377    2.9172 H   0  0  0  0  0  0  0  0  0  0  0  0
   48.3354   11.6373    4.9132 H   0  0  0  0  0  0  0  0  0  0  0  0
   46.8404   11.2670    7.3462 H   0  0  0  0  0  0  0  0  0  0  0  0
   47.2168    9.9841    4.8199 H   0  0  0  0  0  0  0  0  0  0  0  0
   45.2356    8.9891    5.5334 H   0  0  0  0  0  0  0  0  0  0  0  0
   47.1085    7.5867    5.4119 H   0  0  0  0  0  0  0  0  0  0  0  0
   47.4777    7.9917    7.1226 H   0  0  0  0  0  0  0  0  0  0  0  0
   48.6945    8.3128    5.8408 H   0  0  0  0  0  0  0  0  0  0  0  0
   47.3391   10.1345    9.2005 H   0  0  0  0  0  0  0  0  0  0  0  0
   50.2522    9.5085    9.5614 H   0  0  0  0  0  0  0  0  0  0  0  0
   47.9811   10.2719   11.4247 H   0  0  0  0  0  0  0  0  0  0  0  0
   49.6118   11.0075   11.2617 H   0  0  0  0  0  0  0  0  0  0  0  0
   49.4051    9.6854   13.1260 H   0  0  0  0  0  0  0  0  0  0  0  0
   50.7385    7.3614    9.5953 H   0  0  0  0  0  0  0  0  0  0  0  0
   48.6416    5.6256    8.7865 H   0  0  0  0  0  0  0  0  0  0  0  0
   51.3278    4.6337    9.6904 H   0  0  0  0  0  0  0  0  0  0  0  0
   51.2039    5.7372    8.2784 H   0  0  0  0  0  0  0  0  0  0  0  0
   49.1720    5.0190    6.6945 H   0  0  0  0  0  0  0  0  0  0  0  0
   51.4136    2.4352    9.1767 H   0  0  0  0  0  0  0  0  0  0  0  0
   48.6243    3.1492    5.2261 H   0  0  0  0  0  0  0  0  0  0  0  0
   50.8644    0.5619    7.7236 H   0  0  0  0  0  0  0  0  0  0  0  0
   49.4575    0.9156    5.7542 H   0  0  0  0  0  0  0  0  0  0  0  0
   50.6762    5.2881   11.7404 H   0  0  0  0  0  0  0  0  0  0  0  0
   49.3617    2.8554   12.3923 H   0  0  0  0  0  0  0  0  0  0  0  0
   50.5125    2.8111   14.3743 H   0  0  0  0  0  0  0  0  0  0  0  0
   50.5731    4.6015   14.5070 H   0  0  0  0  0  0  0  0  0  0  0  0
   52.7034    4.3227   13.8983 H   0  0  0  0  0  0  0  0  0  0  0  0
   52.0108    4.2285   12.2437 H   0  0  0  0  0  0  0  0  0  0  0  0
   48.5661    6.2291   13.0926 H   0  0  0  0  0  0  0  0  0  0  0  0
   46.5163    5.3510   14.9777 H   0  0  0  0  0  0  0  0  0  0  0  0
   46.3609    7.5097   15.7164 H   0  0  0  0  0  0  0  0  0  0  0  0
   46.6491    8.2102   14.0876 H   0  0  0  0  0  0  0  0  0  0  0  0
   46.4231    5.7828   11.6225 H   0  0  0  0  0  0  0  0  0  0  0  0
   44.0908    7.3328   11.3221 H   0  0  0  0  0  0  0  0  0  0  0  0
   43.8860    6.2373    9.1338 H   0  0  0  0  0  0  0  0  0  0  0  0
   45.1076    5.0207    9.6378 H   0  0  0  0  0  0  0  0  0  0  0  0
   45.5724    6.7488    9.4818 H   0  0  0  0  0  0  0  0  0  0  0  0
   41.9251    6.6099   10.6695 H   0  0  0  0  0  0  0  0  0  0  0  0
   40.8528    4.4812   12.2605 H   0  0  0  0  0  0  0  0  0  0  0  0
   38.8583    4.7118   10.7685 H   0  0  0  0  0  0  0  0  0  0  0  0
   39.7913    5.8723    9.7639 H   0  0  0  0  0  0  0  0  0  0  0  0
   39.6964    2.6262   11.1786 H   0  0  0  0  0  0  0  0  0  0  0  0
   41.7251    1.1630    9.5798 H   0  0  0  0  0  0  0  0  0  0  0  0
   39.1709    0.3685   11.0739 H   0  0  0  0  0  0  0  0  0  0  0  0
   39.9693   -1.9254   10.6241 H   0  0  0  0  0  0  0  0  0  0  0  0
   41.3550   -1.2667    9.6899 H   0  0  0  0  0  0  0  0  0  0  0  0
   39.6780   -1.0454    9.0855 H   0  0  0  0  0  0  0  0  0  0  0  0
   41.0240    0.3390    7.5643 H   0  0  0  0  0  0  0  0  0  0  0  0
   38.8269    2.0292    6.4521 H   0  0  0  0  0  0  0  0  0  0  0  0
   41.6124    1.2700    5.5912 H   0  0  0  0  0  0  0  0  0  0  0  0
   40.7639    2.8493    5.4789 H   0  0  0  0  0  0  0  0  0  0  0  0
   39.8562    2.3824    3.4563 H   0  0  0  0  0  0  0  0  0  0  0  0
   39.7516    0.6182    3.7776 H   0  0  0  0  0  0  0  0  0  0  0  0
   37.2895    0.8960    5.4046 H   0  0  0  0  0  0  0  0  0  0  0  0
   37.7803   -2.0332    5.1351 H   0  0  0  0  0  0  0  0  0  0  0  0
   35.2462   -0.3749    5.3740 H   0  0  0  0  0  0  0  0  0  0  0  0
   35.8926   -1.5768    6.5419 H   0  0  0  0  0  0  0  0  0  0  0  0
   34.7378   -2.0826    3.7817 H   0  0  0  0  0  0  0  0  0  0  0  0
   34.0694   -2.5818    5.3725 H   0  0  0  0  0  0  0  0  0  0  0  0
   37.4015   -2.9653    3.1767 H   0  0  0  0  0  0  0  0  0  0  0  0
   35.9707   -2.0763    1.0112 H   0  0  0  0  0  0  0  0  0  0  0  0
   37.6249   -1.0127   -0.4934 H   0  0  0  0  0  0  0  0  0  0  0  0
   38.8327   -1.0038    0.8361 H   0  0  0  0  0  0  0  0  0  0  0  0
   37.3397   -0.0143    0.9725 H   0  0  0  0  0  0  0  0  0  0  0  0
  1  2  1  0  0  0  0
  1 98  1  0  0  0  0
  1 99  1  0  0  0  0
  1100  1  0  0  0  0
  2  3  1  0  0  0  0
  2  5  1  0  0  0  0
  2101  1  6  0  0  0
  3  4  2  0  0  0  0
  3  9  1  0  0  0  0
  5  6  1  0  0  0  0
  5102  1  0  0  0  0
  5103  1  0  0  0  0
  6  7  1  0  0  0  0
  6104  1  0  0  0  0
  6105  1  0  0  0  0
  7  8  1  0  0  0  0
  8106  1  0  0  0  0
  8107  1  0  0  0  0
  8108  1  0  0  0  0
  9 10  1  0  0  0  0
  9109  1  0  0  0  0
 10 11  1  0  0  0  0
 10 13  1  0  0  0  0
 10110  1  1  0  0  0
 11 12  2  0  0  0  0
 11 16  1  0  0  0  0
 13 14  1  0  0  0  0
 13 15  1  0  0  0  0
 13111  1  6  0  0  0
 14112  1  0  0  0  0
 15113  1  0  0  0  0
 15114  1  0  0  0  0
 15115  1  0  0  0  0
 16 17  1  0  0  0  0
 16116  1  0  0  0  0
 17 18  1  0  0  0  0
 17 20  1  0  0  0  0
 17117  1  6  0  0  0
 18 19  2  0  0  0  0
 18 22  1  0  0  0  0
 20 21  1  0  0  0  0
 20118  1  0  0  0  0
 20119  1  0  0  0  0
 21120  1  0  0  0  0
 22 23  1  0  0  0  0
 22121  1  0  0  0  0
 23 24  1  0  0  0  0
 23 26  1  0  0  0  0
 23122  1  6  0  0  0
 24 25  2  0  0  0  0
 24 33  1  0  0  0  0
 26 27  1  0  0  0  0
 26123  1  0  0  0  0
 26124  1  0  0  0  0
 27 28  2  0  0  0  0
 27 29  1  0  0  0  0
 28 30  1  0  0  0  0
 28125  1  0  0  0  0
 29 31  2  0  0  0  0
 29126  1  0  0  0  0
 30 32  2  0  0  0  0
 30127  1  0  0  0  0
 31 32  1  0  0  0  0
 31128  1  0  0  0  0
 32129  1  0  0  0  0
 33 34  1  0  0  0  0
 33130  1  0  0  0  0
 34 35  1  0  0  0  0
 34 37  1  0  0  0  0
 34131  1  6  0  0  0
 35 36  2  0  0  0  0
 35 42  1  0  0  0  0
 37 38  1  0  0  0  0
 37132  1  0  0  0  0
 37133  1  0  0  0  0
 38 39  1  0  0  0  0
 38134  1  0  0  0  0
 38135  1  0  0  0  0
 39 40  1  0  0  0  0
 39 41  2  0  0  0  0
 42 43  1  0  0  0  0
 42136  1  0  0  0  0
 43 44  1  0  0  0  0
 43 46  1  0  0  0  0
 43137  1  1  0  0  0
 44 45  2  0  0  0  0
 44 50  1  0  0  0  0
 46 47  1  0  0  0  0
 46138  1  0  0  0  0
 46139  1  0  0  0  0
 47 48  1  0  0  0  0
 47 49  2  0  0  0  0
 50 51  1  0  0  0  0
 50140  1  0  0  0  0
 51 52  1  0  0  0  0
 51 54  1  0  0  0  0
 51141  1  1  0  0  0
 52 53  2  0  0  0  0
 52 55  1  0  0  0  0
 54142  1  0  0  0  0
 54143  1  0  0  0  0
 54144  1  0  0  0  0
 55 56  1  0  0  0  0
 55145  1  0  0  0  0
 56 57  1  0  0  0  0
 56 59  1  0  0  0  0
 56146  1  1  0  0  0
 57 58  2  0  0  0  0
 57 63  1  0  0  0  0
 59 60  1  0  0  0  0
 59147  1  0  0  0  0
 59148  1  0  0  0  0
 60 61  1  0  0  0  0
 60 62  2  0  0  0  0
 63 64  1  0  0  0  0
 63149  1  0  0  0  0
 64 65  1  0  0  0  0
 64 72  1  0  0  0  0
 64150  1  6  0  0  0
 65 66  1  0  0  0  0
 65 67  1  0  0  0  0
 65151  1  1  0  0  0
 66152  1  0  0  0  0
 66153  1  0  0  0  0
 66154  1  0  0  0  0
 67 68  1  0  0  0  0
 68 69  1  0  0  0  0
 68 70  1  0  0  0  0
 68 71  2  0  0  0  0
 72 73  2  0  0  0  0
 72 74  1  0  0  0  0
 74 75  1  0  0  0  0
 74155  1  0  0  0  0
 75 76  1  0  0  0  0
 75 78  1  0  0  0  0
 75156  1  1  0  0  0
 76 77  2  0  0  0  0
 76 83  1  0  0  0  0
 78 79  1  0  0  0  0
 78157  1  0  0  0  0
 78158  1  0  0  0  0
 79 80  1  0  0  0  0
 79159  1  0  0  0  0
 79160  1  0  0  0  0
 80 81  1  0  0  0  0
 80 82  2  0  0  0  0
 83 84  1  0  0  0  0
 83161  1  0  0  0  0
 84 85  1  0  0  0  0
 84 87  1  0  0  0  0
 84162  1  1  0  0  0
 85 86  2  0  0  0  0
 85 92  1  0  0  0  0
 87 88  1  0  0  0  0
 87163  1  0  0  0  0
 87164  1  0  0  0  0
 88 89  1  0  0  0  0
 88165  1  0  0  0  0
 88166  1  0  0  0  0
 89 90  1  0  0  0  0
 89 91  2  0  0  0  0
 92 93  1  0  0  0  0
 92167  1  0  0  0  0
 93 94  1  0  0  0  0
 93 96  1  0  0  0  0
 93168  1  6  0  0  0
 94 95  1  0  0  0  0
 94 97  2  0  0  0  0
 96169  1  0  0  0  0
 96170  1  0  0  0  0
 96171  1  0  0  0  0
M  CHG  7   1   1  40  -1  48  -1  61  -1  81  -1  90  -1  95  -1
M  END
