4ymj_ligand
 OpenBabel08222323353D

 40 43  0  0  0  0  0  0  0  0999 V2000
  -29.2550   -9.1720   -5.7260 C   0  0  0  0  0  0  0  0  0  0  0  0
  -30.3940   -8.3800   -5.6430 C   0  0  0  0  0  0  0  0  0  0  0  0
  -30.6120   -7.3800   -6.5720 C   0  0  0  0  0  0  0  0  0  0  0  0
  -27.6180   -4.2630  -11.3560 C   0  0  0  0  0  0  0  0  0  0  0  0
  -27.0210   -5.1240  -10.4140 C   0  0  0  0  0  0  0  0  0  0  0  0
  -24.9650   -5.6160   -9.1290 C   0  0  0  0  0  0  0  0  0  0  0  0
  -24.6470   -7.0920   -9.1440 C   0  0  0  0  0  0  0  0  0  0  0  0
  -24.4080   -7.7790   -7.9650 C   0  0  0  0  0  0  0  0  0  0  0  0
  -24.1200   -9.1330   -7.9790 C   0  0  0  0  0  0  0  0  0  0  0  0
  -24.0660   -9.8180   -9.1740 C   0  0  0  0  0  0  0  0  0  0  0  0
  -24.3010   -9.1450  -10.3540 C   0  0  0  0  0  0  0  0  0  0  0  0
  -24.5920   -7.7920  -10.3390 C   0  0  0  0  0  0  0  0  0  0  0  0
  -28.8810  -11.1100   -4.0610 N   0  0  0  0  0  0  0  0  0  0  0  0
  -29.0440  -10.2440   -4.7850 C   0  0  0  0  0  0  0  0  0  0  0  0
  -28.3360   -8.9400   -6.7390 C   0  0  0  0  0  0  0  0  0  0  0  0
  -28.5640   -7.9410   -7.6670 C   0  0  0  0  0  0  0  0  0  0  0  0
  -29.7040   -7.1520   -7.5990 C   0  0  0  0  0  0  0  0  0  0  0  0
  -29.9700   -6.1110   -8.6120 C   0  0  0  0  0  0  0  0  0  0  0  0
  -29.0340   -5.5640   -9.4660 N   0  0  0  0  0  0  0  0  0  0  0  0
  -29.7070   -4.6960  -10.3100 C   0  0  0  0  0  0  0  0  0  0  0  0
  -31.0040   -4.6560  -10.0200 N   0  0  0  0  0  0  0  0  0  0  0  0
  -31.1580   -5.5280   -8.9730 C   0  0  0  0  0  0  0  0  0  0  0  0
  -27.6850   -5.8280   -9.4640 N   0  0  0  0  0  0  0  0  0  0  0  0
  -28.9450   -4.0370  -11.3050 C   0  0  0  0  0  0  0  0  0  0  0  0
  -25.6420   -5.1820  -10.3430 N   0  0  0  0  0  0  0  0  0  0  0  0
  -31.1124   -8.5467   -4.8486 H   0  0  0  0  0  0  0  0  0  0  0  0
  -31.5023   -6.7660   -6.4985 H   0  0  0  0  0  0  0  0  0  0  0  0
  -27.0099   -3.7828  -12.1212 H   0  0  0  0  0  0  0  0  0  0  0  0
  -24.0254   -5.0531   -9.0280 H   0  0  0  0  0  0  0  0  0  0  0  0
  -25.6144   -5.4032   -8.2670 H   0  0  0  0  0  0  0  0  0  0  0  0
  -24.4470   -7.2498   -7.0198 H   0  0  0  0  0  0  0  0  0  0  0  0
  -23.9364   -9.6561   -7.0475 H   0  0  0  0  0  0  0  0  0  0  0  0
  -23.8404  -10.8782   -9.1858 H   0  0  0  0  0  0  0  0  0  0  0  0
  -24.2577   -9.6776  -11.2972 H   0  0  0  0  0  0  0  0  0  0  0  0
  -24.7791   -7.2738  -11.2726 H   0  0  0  0  0  0  0  0  0  0  0  0
  -27.4375   -9.5431   -6.8030 H   0  0  0  0  0  0  0  0  0  0  0  0
  -27.8428   -7.7716   -8.4584 H   0  0  0  0  0  0  0  0  0  0  0  0
  -32.1102   -5.7333   -8.4860 H   0  0  0  0  0  0  0  0  0  0  0  0
  -29.4217   -3.3617  -12.0140 H   0  0  0  0  0  0  0  0  0  0  0  0
  -25.0823   -4.9130  -11.1647 H   0  0  0  0  0  0  0  0  0  0  0  0
  1 14  1  0  0  0  0
  2  1  2  0  0  0  0
  2 26  1  0  0  0  0
  3  2  1  0  0  0  0
  3 27  1  0  0  0  0
  4 24  2  0  0  0  0
  4 28  1  0  0  0  0
  5  4  1  0  0  0  0
  5 25  1  0  0  0  0
  6  7  1  0  0  0  0
  6 29  1  0  0  0  0
  6 30  1  0  0  0  0
  7  8  2  0  0  0  0
  7 12  1  0  0  0  0
  8  9  1  0  0  0  0
  8 31  1  0  0  0  0
  9 10  2  0  0  0  0
  9 32  1  0  0  0  0
 10 33  1  0  0  0  0
 11 10  1  0  0  0  0
 11 34  1  0  0  0  0
 12 11  2  0  0  0  0
 12 35  1  0  0  0  0
 14 13  3  0  0  0  0
 15  1  1  0  0  0  0
 15 36  1  0  0  0  0
 16 15  2  0  0  0  0
 16 37  1  0  0  0  0
 17  3  2  0  0  0  0
 17 16  1  0  0  0  0
 18 17  1  0  0  0  0
 18 22  2  0  0  0  0
 19 18  1  0  0  0  0
 19 20  1  0  0  0  0
 19 23  1  0  0  0  0
 20 21  2  0  0  0  0
 20 24  1  0  0  0  0
 21 22  1  0  0  0  0
 22 38  1  0  0  0  0
 23  5  2  0  0  0  0
 24 39  1  0  0  0  0
 25  6  1  0  0  0  0
 25 40  1  0  0  0  0
M  END
