4yo6_ligand
 OpenBabel08222323353D

 38 41  0  0  0  0  0  0  0  0999 V2000
   30.1570    6.6200   -7.1810 N   0  0  0  0  0  0  0  0  0  0  0  0
   30.8010    5.6690   -7.8870 C   0  0  0  0  0  0  0  0  0  0  0  0
   30.7530    4.4300   -7.7000 O   0  0  0  0  0  0  0  0  0  0  0  0
   31.6980    6.1510   -8.9800 C   0  0  0  0  0  0  0  0  0  0  0  0
   32.6730    5.3670   -9.6810 C   0  0  0  0  0  0  0  0  0  0  0  0
   33.3240    6.0860  -10.5850 N   0  0  0  0  0  0  0  0  0  0  0  0
   32.7740    7.3670  -10.4940 N   0  0  0  0  0  0  0  0  0  0  0  0
   31.7730    7.4200   -9.4770 C   0  0  0  0  0  0  0  0  0  0  0  0
   31.1260    8.5850   -9.1760 N   0  0  0  0  0  0  0  0  0  0  0  0
   31.5040    9.6740   -9.9100 C   0  0  0  0  0  0  0  0  0  0  0  0
   32.4880    9.6590  -10.9590 C   0  0  0  0  0  0  0  0  0  0  0  0
   33.1260    8.4590  -11.2330 C   0  0  0  0  0  0  0  0  0  0  0  0
   29.3770    6.4690   -6.0810 C   0  0  0  0  0  0  0  0  0  0  0  0
   29.0750    5.2880   -5.3620 C   0  0  0  0  0  0  0  0  0  0  0  0
   28.2840    5.7430   -4.2680 C   0  0  0  0  0  0  0  0  0  0  0  0
   28.1080    7.1060   -4.3280 N   0  0  0  0  0  0  0  0  0  0  0  0
   28.7920    7.5430   -5.4390 N   0  0  0  0  0  0  0  0  0  0  0  0
   27.7200    4.9190   -3.1520 C   0  0  0  0  0  0  0  0  0  0  0  0
   28.8480    8.9120   -5.7450 C   0  0  0  0  0  0  0  0  0  0  0  0
   29.3460    9.8340   -4.7480 C   0  0  0  0  0  0  0  0  0  0  0  0
   29.4170   11.2310   -5.0530 C   0  0  0  0  0  0  0  0  0  0  0  0
   29.0120   11.7160   -6.3470 C   0  0  0  0  0  0  0  0  0  0  0  0
   28.5210   10.8000   -7.3380 C   0  0  0  0  0  0  0  0  0  0  0  0
   28.4290    9.4000   -7.0410 C   0  0  0  0  0  0  0  0  0  0  0  0
   30.2685    7.5576   -7.5105 H   0  0  0  0  0  0  0  0  0  0  0  0
   32.8563    4.3100   -9.4937 H   0  0  0  0  0  0  0  0  0  0  0  0
   31.0240   10.6249   -9.6836 H   0  0  0  0  0  0  0  0  0  0  0  0
   32.7244   10.5618  -11.5203 H   0  0  0  0  0  0  0  0  0  0  0  0
   33.8833    8.3900  -12.0125 H   0  0  0  0  0  0  0  0  0  0  0  0
   29.3774    4.2674   -5.5919 H   0  0  0  0  0  0  0  0  0  0  0  0
   27.1556    5.5679   -2.4662 H   0  0  0  0  0  0  0  0  0  0  0  0
   28.5406    4.4326   -2.6044 H   0  0  0  0  0  0  0  0  0  0  0  0
   27.0495    4.1514   -3.5656 H   0  0  0  0  0  0  0  0  0  0  0  0
   29.6630    9.4700   -3.7774 H   0  0  0  0  0  0  0  0  0  0  0  0
   29.7778   11.9279   -4.3053 H   0  0  0  0  0  0  0  0  0  0  0  0
   29.0779   12.7741   -6.5733 H   0  0  0  0  0  0  0  0  0  0  0  0
   28.2194   11.1674   -8.3122 H   0  0  0  0  0  0  0  0  0  0  0  0
   28.0470    8.7100   -7.7847 H   0  0  0  0  0  0  0  0  0  0  0  0
  1  2  1  0  0  0  0
  1 13  1  0  0  0  0
  1 25  1  0  0  0  0
  2  3  2  0  0  0  0
  2  4  1  0  0  0  0
  4  5  1  0  0  0  0
  4  8  2  0  0  0  0
  5  6  2  0  0  0  0
  5 26  1  0  0  0  0
  6  7  1  0  0  0  0
  7  8  1  0  0  0  0
  7 12  1  0  0  0  0
  8  9  1  0  0  0  0
  9 10  2  0  0  0  0
 10 11  1  0  0  0  0
 10 27  1  0  0  0  0
 11 12  2  0  0  0  0
 11 28  1  0  0  0  0
 12 29  1  0  0  0  0
 13 14  2  0  0  0  0
 13 17  1  0  0  0  0
 14 15  1  0  0  0  0
 14 30  1  0  0  0  0
 15 16  2  0  0  0  0
 15 18  1  0  0  0  0
 16 17  1  0  0  0  0
 17 19  1  0  0  0  0
 18 31  1  0  0  0  0
 18 32  1  0  0  0  0
 18 33  1  0  0  0  0
 19 20  2  0  0  0  0
 19 24  1  0  0  0  0
 20 21  1  0  0  0  0
 20 34  1  0  0  0  0
 21 22  2  0  0  0  0
 21 35  1  0  0  0  0
 22 23  1  0  0  0  0
 22 36  1  0  0  0  0
 23 24  2  0  0  0  0
 23 37  1  0  0  0  0
 24 38  1  0  0  0  0
M  END
