4yoj_ligand
 OpenBabel08222323353D

 55 59  0  0  0  0  0  0  0  0999 V2000
   -7.2430  -21.3800   29.1620 O   0  0  0  0  0  0  0  0  0  0  0  0
   -7.1720  -22.2470   28.2890 C   0  0  0  0  0  0  0  0  0  0  0  0
   -5.9340  -22.9520   28.0780 N   0  0  0  0  0  0  0  0  0  0  0  0
   -5.8890  -23.9870   27.0560 C   0  0  0  0  0  0  0  0  0  0  0  0
   -6.1110  -25.2840   27.4670 C   0  0  0  0  0  0  0  0  0  0  0  0
   -6.0660  -26.3340   26.5300 C   0  0  0  0  0  0  0  0  0  0  0  0
   -5.8270  -26.0580   25.2230 C   0  0  0  0  0  0  0  0  0  0  0  0
   -5.7380  -27.1000   24.2740 N   0  0  0  0  0  0  0  0  0  0  0  0
   -6.4850  -28.3320   24.2740 C   0  0  0  0  0  0  0  0  0  0  0  0
   -6.1560  -29.3070   23.1450 C   0  0  0  0  0  0  0  0  0  0  0  0
   -4.8740  -29.2630   22.6120 C   0  0  0  0  0  0  0  0  0  0  0  0
   -4.5150  -30.1510   21.5470 C   0  0  0  0  0  0  0  0  0  0  0  0
   -5.4660  -31.0620   21.0580 C   0  0  0  0  0  0  0  0  0  0  0  0
   -6.7590  -31.1050   21.5980 C   0  0  0  0  0  0  0  0  0  0  0  0
   -7.1190  -30.2180   22.6610 C   0  0  0  0  0  0  0  0  0  0  0  0
   -7.3500  -28.6070   25.1170 O   0  0  0  0  0  0  0  0  0  0  0  0
   -5.5860  -24.7420   24.8090 C   0  0  0  0  0  0  0  0  0  0  0  0
   -5.6240  -23.7000   25.7340 C   0  0  0  0  0  0  0  0  0  0  0  0
   -4.7460  -22.6620   28.8600 C   0  0  0  0  0  0  0  0  0  0  0  0
   -3.6100  -22.4580   27.8530 C   0  0  0  0  0  0  0  0  0  0  0  0
   -2.5760  -23.4450   27.5160 C   0  0  0  0  0  0  0  0  0  0  0  0
   -1.6020  -22.8570   26.3850 S   0  0  0  0  0  0  0  0  0  0  0  0
   -2.2520  -21.3850   26.1480 C   0  0  0  0  0  0  0  0  0  0  0  0
   -3.4050  -21.2120   27.0040 C   0  0  0  0  0  0  0  0  0  0  0  0
   -8.3670  -22.6100   27.4090 C   0  0  0  0  0  0  0  0  0  0  0  0
   -9.5580  -21.9350   27.8030 N   0  0  0  0  0  0  0  0  0  0  0  0
  -10.5200  -22.4960   28.6230 C   0  0  0  0  0  0  0  0  0  0  0  0
  -10.6240  -23.7560   29.2770 C   0  0  0  0  0  0  0  0  0  0  0  0
  -11.7490  -24.0230   30.0610 C   0  0  0  0  0  0  0  0  0  0  0  0
  -12.7690  -23.0660   30.1980 C   0  0  0  0  0  0  0  0  0  0  0  0
  -12.6580  -21.8240   29.5470 C   0  0  0  0  0  0  0  0  0  0  0  0
  -11.5290  -21.5440   28.7570 C   0  0  0  0  0  0  0  0  0  0  0  0
  -11.1210  -20.4310   28.0020 N   0  0  0  0  0  0  0  0  0  0  0  0
   -9.9430  -20.6900   27.4400 N   0  0  0  0  0  0  0  0  0  0  0  0
   -6.3198  -25.4951   28.5095 H   0  0  0  0  0  0  0  0  0  0  0  0
   -6.2215  -27.3576   26.8510 H   0  0  0  0  0  0  0  0  0  0  0  0
   -5.0893  -26.9692   23.5243 H   0  0  0  0  0  0  0  0  0  0  0  0
   -4.1474  -28.5588   23.0009 H   0  0  0  0  0  0  0  0  0  0  0  0
   -3.5182  -30.1203   21.1221 H   0  0  0  0  0  0  0  0  0  0  0  0
   -5.1973  -31.7387   20.2549 H   0  0  0  0  0  0  0  0  0  0  0  0
   -7.4855  -31.8099   21.2103 H   0  0  0  0  0  0  0  0  0  0  0  0
   -8.1151  -30.2452   23.0877 H   0  0  0  0  0  0  0  0  0  0  0  0
   -5.3696  -24.5334   23.7675 H   0  0  0  0  0  0  0  0  0  0  0  0
   -5.4476  -22.6781   25.4182 H   0  0  0  0  0  0  0  0  0  0  0  0
   -4.5154  -23.5038   29.5294 H   0  0  0  0  0  0  0  0  0  0  0  0
   -4.8953  -21.7497   29.4561 H   0  0  0  0  0  0  0  0  0  0  0  0
   -2.4839  -24.4316   27.9677 H   0  0  0  0  0  0  0  0  0  0  0  0
   -1.8750  -20.6402   25.4486 H   0  0  0  0  0  0  0  0  0  0  0  0
   -4.0327  -20.3227   27.0361 H   0  0  0  0  0  0  0  0  0  0  0  0
   -8.5376  -23.6947   27.4752 H   0  0  0  0  0  0  0  0  0  0  0  0
   -8.1349  -22.3381   26.3687 H   0  0  0  0  0  0  0  0  0  0  0  0
   -9.8412  -24.4980   29.1682 H   0  0  0  0  0  0  0  0  0  0  0  0
  -11.8360  -24.9770   30.5683 H   0  0  0  0  0  0  0  0  0  0  0  0
  -13.6403  -23.2847   30.8047 H   0  0  0  0  0  0  0  0  0  0  0  0
  -13.4422  -21.0833   29.6543 H   0  0  0  0  0  0  0  0  0  0  0  0
  1  2  2  0  0  0  0
  2  3  1  0  0  0  0
  2 25  1  0  0  0  0
  3  4  1  0  0  0  0
  3 19  1  0  0  0  0
  4  5  2  0  0  0  0
  4 18  1  0  0  0  0
  5  6  1  0  0  0  0
  5 35  1  0  0  0  0
  6  7  2  0  0  0  0
  6 36  1  0  0  0  0
  7  8  1  0  0  0  0
  7 17  1  0  0  0  0
  8  9  1  0  0  0  0
  8 37  1  0  0  0  0
  9 10  1  0  0  0  0
  9 16  2  0  0  0  0
 10 11  2  0  0  0  0
 10 15  1  0  0  0  0
 11 12  1  0  0  0  0
 11 38  1  0  0  0  0
 12 13  2  0  0  0  0
 12 39  1  0  0  0  0
 13 14  1  0  0  0  0
 13 40  1  0  0  0  0
 14 15  2  0  0  0  0
 14 41  1  0  0  0  0
 15 42  1  0  0  0  0
 17 18  2  0  0  0  0
 17 43  1  0  0  0  0
 18 44  1  0  0  0  0
 19 20  1  0  0  0  0
 19 45  1  0  0  0  0
 19 46  1  0  0  0  0
 20 21  2  0  0  0  0
 20 24  1  0  0  0  0
 21 22  1  0  0  0  0
 21 47  1  0  0  0  0
 22 23  1  0  0  0  0
 23 24  2  0  0  0  0
 23 48  1  0  0  0  0
 24 49  1  0  0  0  0
 25 26  1  0  0  0  0
 25 50  1  0  0  0  0
 25 51  1  0  0  0  0
 26 27  1  0  0  0  0
 26 34  1  0  0  0  0
 27 28  2  0  0  0  0
 27 32  1  0  0  0  0
 28 29  1  0  0  0  0
 28 52  1  0  0  0  0
 29 30  2  0  0  0  0
 29 53  1  0  0  0  0
 30 31  1  0  0  0  0
 30 54  1  0  0  0  0
 31 32  2  0  0  0  0
 31 55  1  0  0  0  0
 32 33  1  0  0  0  0
 33 34  2  0  0  0  0
M  END
