4yrc_ligand
 OpenBabel08222323353D

 20 21  0  0  0  0  0  0  0  0999 V2000
   65.7560    8.9690   20.7960 C   0  0  0  0  0  0  0  0  0  0  0  0
   64.4130    8.7790   20.9210 C   0  0  0  0  0  0  0  0  0  0  0  0
   63.6600    8.2340   19.8570 C   0  0  0  0  0  0  0  0  0  0  0  0
   62.2660    8.0120   19.8970 C   0  0  0  0  0  0  0  0  0  0  0  0
   61.6190    7.4510   18.8380 C   0  0  0  0  0  0  0  0  0  0  0  0
   62.3040    7.0910   17.6900 C   0  0  0  0  0  0  0  0  0  0  0  0
   63.6530    7.2980   17.5950 C   0  0  0  0  0  0  0  0  0  0  0  0
   64.3130    6.9380   16.4660 O   0  0  0  0  0  0  0  0  0  0  0  0
   64.3630    7.8820   18.6800 C   0  0  0  0  0  0  0  0  0  0  0  0
   65.7160    8.0810   18.5400 N   0  0  0  0  0  0  0  0  0  0  0  0
   66.3740    8.6190   19.5700 C   0  0  0  0  0  0  0  0  0  0  0  0
   67.6900    8.8530   19.3780 N   0  0  0  0  0  0  0  0  0  0  0  0
   66.3376    9.3779   21.6143 H   0  0  0  0  0  0  0  0  0  0  0  0
   63.9169    9.0487   21.8463 H   0  0  0  0  0  0  0  0  0  0  0  0
   61.7043    8.2914   20.7810 H   0  0  0  0  0  0  0  0  0  0  0  0
   60.5495    7.2835   18.8949 H   0  0  0  0  0  0  0  0  0  0  0  0
   61.7682    6.6424   16.8613 H   0  0  0  0  0  0  0  0  0  0  0  0
   65.2350    7.1469   16.5593 H   0  0  0  0  0  0  0  0  0  0  0  0
   68.1337    8.5964   18.4846 H   0  0  0  0  0  0  0  0  0  0  0  0
   68.2501    9.2881   20.1249 H   0  0  0  0  0  0  0  0  0  0  0  0
  1  2  2  0  0  0  0
  1 11  1  0  0  0  0
  1 13  1  0  0  0  0
  2  3  1  0  0  0  0
  2 14  1  0  0  0  0
  3  4  2  0  0  0  0
  3  9  1  0  0  0  0
  4  5  1  0  0  0  0
  4 15  1  0  0  0  0
  5  6  2  0  0  0  0
  5 16  1  0  0  0  0
  6  7  1  0  0  0  0
  6 17  1  0  0  0  0
  7  8  1  0  0  0  0
  7  9  2  0  0  0  0
  8 18  1  0  0  0  0
  9 10  1  0  0  0  0
 10 11  2  0  0  0  0
 11 12  1  0  0  0  0
 12 19  1  0  0  0  0
 12 20  1  0  0  0  0
M  END
