4yrr_ligand
 OpenBabel08222323353D

 24 25  0  0  0  0  0  0  0  0999 V2000
    8.3960   -5.8270   31.4690 O   0  0  0  0  0  0  0  0  0  0  0  0
    8.1190   -5.2470   32.5140 C   0  0  0  0  0  0  0  0  0  0  0  0
    6.8220   -4.5150   32.6980 C   0  0  0  0  0  0  0  0  0  0  0  0
    8.9510   -5.2200   33.5850 N   0  0  0  0  0  0  0  0  0  0  0  0
   10.1360   -5.9670   33.7910 C   0  0  0  0  0  0  0  0  0  0  0  0
   10.7510   -6.6590   32.7730 C   0  0  0  0  0  0  0  0  0  0  0  0
   11.9560   -7.3520   33.0110 C   0  0  0  0  0  0  0  0  0  0  0  0
   12.4920   -7.3250   34.3180 C   0  0  0  0  0  0  0  0  0  0  0  0
   11.8700   -6.6540   35.3380 N   0  0  0  0  0  0  0  0  0  0  0  0
   10.7580   -6.0210   35.0360 C   0  0  0  0  0  0  0  0  0  0  0  0
   12.6840   -8.0080   31.9930 C   0  0  0  0  0  0  0  0  0  0  0  0
   13.8870   -8.5860   32.2630 C   0  0  0  0  0  0  0  0  0  0  0  0
   14.4120   -8.5590   33.5460 C   0  0  0  0  0  0  0  0  0  0  0  0
   13.7350   -7.9500   34.5630 C   0  0  0  0  0  0  0  0  0  0  0  0
    6.7895   -4.0742   33.7053 H   0  0  0  0  0  0  0  0  0  0  0  0
    5.9842   -5.2176   32.5780 H   0  0  0  0  0  0  0  0  0  0  0  0
    6.7416   -3.7166   31.9457 H   0  0  0  0  0  0  0  0  0  0  0  0
    8.6953   -4.5938   34.3216 H   0  0  0  0  0  0  0  0  0  0  0  0
   10.3074   -6.6715   31.7840 H   0  0  0  0  0  0  0  0  0  0  0  0
   10.2731   -5.4833   35.8427 H   0  0  0  0  0  0  0  0  0  0  0  0
   12.2810   -8.0515   30.9876 H   0  0  0  0  0  0  0  0  0  0  0  0
   14.4396   -9.0720   31.4671 H   0  0  0  0  0  0  0  0  0  0  0  0
   15.3699   -9.0263   33.7435 H   0  0  0  0  0  0  0  0  0  0  0  0
   14.1531   -7.9460   35.5631 H   0  0  0  0  0  0  0  0  0  0  0  0
  1  2  2  0  0  0  0
  2  3  1  0  0  0  0
  2  4  1  0  0  0  0
  3 15  1  0  0  0  0
  3 16  1  0  0  0  0
  3 17  1  0  0  0  0
  4  5  1  0  0  0  0
  4 18  1  0  0  0  0
  5  6  2  0  0  0  0
  5 10  1  0  0  0  0
  6  7  1  0  0  0  0
  6 19  1  0  0  0  0
  7  8  2  0  0  0  0
  7 11  1  0  0  0  0
  8  9  1  0  0  0  0
  8 14  1  0  0  0  0
  9 10  2  0  0  0  0
 10 20  1  0  0  0  0
 11 12  2  0  0  0  0
 11 21  1  0  0  0  0
 12 13  1  0  0  0  0
 12 22  1  0  0  0  0
 13 14  2  0  0  0  0
 13 23  1  0  0  0  0
 14 24  1  0  0  0  0
M  END
