4yrs_ligand
 OpenBabel08222323353D

 27 28  0  0  0  0  0  0  0  0999 V2000
   63.2630    7.6840   20.1340 N   0  0  0  0  0  0  0  0  0  0  0  0
   64.8910    6.8310   18.0820 C   0  0  0  0  0  0  0  0  0  0  0  0
   64.5770    7.9450   20.2040 C   0  0  0  0  0  0  0  0  0  0  0  0
   62.7300    7.0220   19.0940 C   0  0  0  0  0  0  0  0  0  0  0  0
   63.5230    6.5640   18.0300 C   0  0  0  0  0  0  0  0  0  0  0  0
   65.0840    8.6440   21.2970 C   0  0  0  0  0  0  0  0  0  0  0  0
   61.4300    4.8400   15.4290 C   0  0  0  0  0  0  0  0  0  0  0  0
   61.7410    5.5630   16.7370 C   0  0  0  0  0  0  0  0  0  0  0  0
   66.7860    7.8020   19.2400 C   0  0  0  0  0  0  0  0  0  0  0  0
   67.3060    8.5010   20.3300 C   0  0  0  0  0  0  0  0  0  0  0  0
   66.4560    8.9220   21.3590 C   0  0  0  0  0  0  0  0  0  0  0  0
   60.8370    5.8320   17.5140 O   0  0  0  0  0  0  0  0  0  0  0  0
   59.9750    4.3880   15.2790 C   0  0  0  0  0  0  0  0  0  0  0  0
   63.0360    5.8750   16.9510 N   0  0  0  0  0  0  0  0  0  0  0  0
   65.4190    7.5250   19.1720 C   0  0  0  0  0  0  0  0  0  0  0  0
   65.5411    6.5011   17.2797 H   0  0  0  0  0  0  0  0  0  0  0  0
   61.6621    6.8370   19.0758 H   0  0  0  0  0  0  0  0  0  0  0  0
   64.4233    8.9699   22.0922 H   0  0  0  0  0  0  0  0  0  0  0  0
   62.0734    3.9499   15.3680 H   0  0  0  0  0  0  0  0  0  0  0  0
   61.6651    5.5202   14.5971 H   0  0  0  0  0  0  0  0  0  0  0  0
   67.4446    7.4733   18.4443 H   0  0  0  0  0  0  0  0  0  0  0  0
   68.3670    8.7176   20.3797 H   0  0  0  0  0  0  0  0  0  0  0  0
   66.8600    9.4645   22.2061 H   0  0  0  0  0  0  0  0  0  0  0  0
   59.8468    3.8799   14.3119 H   0  0  0  0  0  0  0  0  0  0  0  0
   59.3122    5.2648   15.3232 H   0  0  0  0  0  0  0  0  0  0  0  0
   59.7206    3.6945   16.0941 H   0  0  0  0  0  0  0  0  0  0  0  0
   63.6974    5.5776   16.2625 H   0  0  0  0  0  0  0  0  0  0  0  0
  1  4  1  0  0  0  0
  2  5  1  0  0  0  0
  2 16  1  0  0  0  0
  3  1  2  0  0  0  0
  3  6  1  0  0  0  0
  4 17  1  0  0  0  0
  5  4  2  0  0  0  0
  5 14  1  0  0  0  0
  6 11  2  0  0  0  0
  6 18  1  0  0  0  0
  7 13  1  0  0  0  0
  7 19  1  0  0  0  0
  7 20  1  0  0  0  0
  8  7  1  0  0  0  0
  8 12  2  0  0  0  0
  9 10  2  0  0  0  0
  9 15  1  0  0  0  0
  9 21  1  0  0  0  0
 10 11  1  0  0  0  0
 10 22  1  0  0  0  0
 11 23  1  0  0  0  0
 13 24  1  0  0  0  0
 13 25  1  0  0  0  0
 13 26  1  0  0  0  0
 14  8  1  0  0  0  0
 14 27  1  0  0  0  0
 15  2  2  0  0  0  0
 15  3  1  0  0  0  0
M  END
