4yrt_ligand
 OpenBabel08222323353D

 29 30  0  0  0  0  0  0  0  0999 V2000
   62.0530    4.1790   15.3640 O   0  0  0  0  0  0  0  0  0  0  0  0
   61.1850    5.0550   15.3240 C   0  0  0  0  0  0  0  0  0  0  0  0
   59.8640    4.7930   14.6050 C   0  0  0  0  0  0  0  0  0  0  0  0
   59.5070    3.3090   14.5860 C   0  0  0  0  0  0  0  0  0  0  0  0
   61.0910    5.9910   16.2630 N   0  0  0  0  0  0  0  0  0  0  0  0
   62.1520    6.5090   16.9480 C   0  0  0  0  0  0  0  0  0  0  0  0
   61.8800    6.9670   18.2360 C   0  0  0  0  0  0  0  0  0  0  0  0
   62.8780    7.5230   19.0260 C   0  0  0  0  0  0  0  0  0  0  0  0
   62.5510    7.9640   20.3100 C   0  0  0  0  0  0  0  0  0  0  0  0
   63.5330    8.5300   21.1240 C   0  0  0  0  0  0  0  0  0  0  0  0
   64.8440    8.6520   20.6420 C   0  0  0  0  0  0  0  0  0  0  0  0
   65.1590    8.2150   19.3430 C   0  0  0  0  0  0  0  0  0  0  0  0
   66.4340    8.3370   18.8870 O   0  0  0  0  0  0  0  0  0  0  0  0
   64.1780    7.6480   18.5290 C   0  0  0  0  0  0  0  0  0  0  0  0
   64.4680    7.1940   17.2360 C   0  0  0  0  0  0  0  0  0  0  0  0
   63.4570    6.6240   16.4430 C   0  0  0  0  0  0  0  0  0  0  0  0
   59.9468    5.1514   13.5684 H   0  0  0  0  0  0  0  0  0  0  0  0
   59.0637    5.3440   15.1207 H   0  0  0  0  0  0  0  0  0  0  0  0
   58.5513    3.1685   14.0598 H   0  0  0  0  0  0  0  0  0  0  0  0
   59.4146    2.9408   15.6184 H   0  0  0  0  0  0  0  0  0  0  0  0
   60.2977    2.7483   14.0661 H   0  0  0  0  0  0  0  0  0  0  0  0
   60.1800    6.3399   16.4828 H   0  0  0  0  0  0  0  0  0  0  0  0
   60.8724    6.8879   18.6279 H   0  0  0  0  0  0  0  0  0  0  0  0
   61.5347    7.8667   20.6743 H   0  0  0  0  0  0  0  0  0  0  0  0
   63.2841    8.8729   22.1218 H   0  0  0  0  0  0  0  0  0  0  0  0
   65.6147    9.0832   21.2706 H   0  0  0  0  0  0  0  0  0  0  0  0
   66.6853    9.2531   18.8939 H   0  0  0  0  0  0  0  0  0  0  0  0
   65.4754    7.2825   16.8456 H   0  0  0  0  0  0  0  0  0  0  0  0
   63.6846    6.2736   15.4428 H   0  0  0  0  0  0  0  0  0  0  0  0
  1  2  2  0  0  0  0
  2  3  1  0  0  0  0
  2  5  1  0  0  0  0
  3  4  1  0  0  0  0
  3 17  1  0  0  0  0
  3 18  1  0  0  0  0
  4 19  1  0  0  0  0
  4 20  1  0  0  0  0
  4 21  1  0  0  0  0
  5  6  1  0  0  0  0
  5 22  1  0  0  0  0
  6  7  2  0  0  0  0
  6 16  1  0  0  0  0
  7  8  1  0  0  0  0
  7 23  1  0  0  0  0
  8  9  2  0  0  0  0
  8 14  1  0  0  0  0
  9 10  1  0  0  0  0
  9 24  1  0  0  0  0
 10 11  2  0  0  0  0
 10 25  1  0  0  0  0
 11 12  1  0  0  0  0
 11 26  1  0  0  0  0
 12 13  1  0  0  0  0
 12 14  2  0  0  0  0
 13 27  1  0  0  0  0
 14 15  1  0  0  0  0
 15 16  2  0  0  0  0
 15 28  1  0  0  0  0
 16 29  1  0  0  0  0
M  END
