4yt7_ligand
 OpenBabel08222323353D

 71 74  0  0  1  0  0  0  0  0999 V2000
   10.2940   32.5880   27.3060 C   0  0  0  0  0  0  0  0  0  0  0  0
    4.2150   33.1580   23.3380 C   0  0  0  0  0  0  0  0  0  0  0  0
   10.7370   32.2510   29.7470 C   0  0  0  0  0  3  0  0  0  0  0  0
    8.9260   34.9450   27.7910 C   0  0  0  0  0  0  0  0  0  0  0  0
    9.4600   34.2230   28.8410 C   0  0  0  0  0  0  0  0  0  0  0  0
    3.3540   32.1730   22.7550 C   0  0  0  0  0  0  0  0  0  0  0  0
    7.8610   38.0580   22.4140 C   0  0  0  0  0  0  0  0  0  0  0  0
    7.2280   39.0020   23.1720 C   0  0  0  0  0  0  0  0  0  0  0  0
    9.0520   34.4830   26.4850 C   0  0  0  0  0  0  0  0  0  0  0  0
    9.7520   33.3040   26.2500 C   0  0  0  0  0  0  0  0  0  0  0  0
    9.5410   38.1080   18.5000 C   0  0  0  0  0  0  0  0  0  0  0  0
    2.8790   35.3180   30.6680 C   0  0  0  0  0  0  0  0  0  0  0  0
   10.2630   37.6300   19.5760 C   0  0  0  0  0  0  0  0  0  0  0  0
    5.5610   36.1880   27.0630 C   0  0  0  0  0  0  0  0  0  0  0  0
    6.1910   35.8840   25.8650 C   0  0  0  0  0  0  0  0  0  0  0  0
    5.5080   35.0750   24.9660 C   0  0  0  0  0  0  0  0  0  0  0  0
    4.2360   34.6160   25.2650 C   0  0  0  0  0  0  0  0  0  0  0  0
    3.6040   34.9710   26.4470 C   0  0  0  0  0  0  0  0  0  0  0  0
    4.2780   35.7590   27.3690 C   0  0  0  0  0  0  0  0  0  0  0  0
    3.5630   33.6890   24.5100 O   0  0  0  0  0  0  0  0  0  0  0  0
    7.6210   36.3370   25.5860 C   0  0  1  0  0  0  0  0  0  0  0  0
    8.4670   35.1630   25.4130 N   0  0  0  0  0  0  0  0  0  0  0  0
    7.5530   37.1980   24.3620 C   0  0  0  0  0  0  0  0  0  0  0  0
   10.1710   33.0420   28.6180 C   0  0  0  0  0  0  0  0  0  0  0  0
    8.0500   36.9250   23.1730 N   0  0  0  0  0  0  0  0  0  0  0  0
    7.0250   38.4410   24.3880 N   0  0  0  0  0  0  0  0  0  0  0  0
    6.2420   36.9150   27.9720 F   0  0  0  0  0  0  0  0  0  0  0  0
    3.7420   36.1740   28.5760 O   0  0  0  0  0  0  0  0  0  0  0  0
    2.6440   35.4280   29.2060 C   0  0  0  0  0  0  0  0  0  0  0  0
    1.4040   36.1740   28.8970 C   0  0  0  0  0  0  0  0  0  0  0  0
    8.4150   38.0960   21.0470 C   0  0  0  0  0  0  0  0  0  0  0  0
   11.1990   31.0860   29.4950 N   0  0  0  0  0  0  0  0  0  0  0  0
   10.6590   32.7620   30.9930 N   0  0  0  0  0  0  0  0  0  0  0  0
    9.7080   37.6090   20.8420 C   0  0  0  0  0  0  0  0  0  0  0  0
    8.2570   38.5950   18.6790 C   0  0  0  0  0  0  0  0  0  0  0  0
    7.6800   38.5950   19.9510 C   0  0  0  0  0  0  0  0  0  0  0  0
    6.2750   39.0950   20.0820 C   0  0  0  0  0  0  0  0  0  0  0  0
    5.3150   38.3630   19.5340 N   0  0  0  0  0  0  0  0  0  0  0  0
    6.0460   40.1630   20.6930 O   0  0  0  0  0  0  0  0  0  0  0  0
   10.8211   31.6616   27.1085 H   0  0  0  0  0  0  0  0  0  0  0  0
    4.3986   33.9668   22.6154 H   0  0  0  0  0  0  0  0  0  0  0  0
    5.1718   32.6954   23.6216 H   0  0  0  0  0  0  0  0  0  0  0  0
    8.4063   35.8761   27.9859 H   0  0  0  0  0  0  0  0  0  0  0  0
    9.3247   34.5796   29.8557 H   0  0  0  0  0  0  0  0  0  0  0  0
    3.8319   31.7534   21.8575 H   0  0  0  0  0  0  0  0  0  0  0  0
    2.3979   32.6403   22.4767 H   0  0  0  0  0  0  0  0  0  0  0  0
    3.1711   31.3689   23.4829 H   0  0  0  0  0  0  0  0  0  0  0  0
    6.9433   40.0059   22.8605 H   0  0  0  0  0  0  0  0  0  0  0  0
    9.8743   32.9431   25.2352 H   0  0  0  0  0  0  0  0  0  0  0  0
    9.9819   38.1019   17.5097 H   0  0  0  0  0  0  0  0  0  0  0  0
    2.0528   34.7585   31.1311 H   0  0  0  0  0  0  0  0  0  0  0  0
    2.9317   36.3249   31.1077 H   0  0  0  0  0  0  0  0  0  0  0  0
    3.8264   34.7890   30.8483 H   0  0  0  0  0  0  0  0  0  0  0  0
   11.2738   37.2681   19.4265 H   0  0  0  0  0  0  0  0  0  0  0  0
    5.9729   34.8015   24.0257 H   0  0  0  0  0  0  0  0  0  0  0  0
    2.5930   34.6361   26.6489 H   0  0  0  0  0  0  0  0  0  0  0  0
    8.0041   36.9300   26.4296 H   0  0  0  0  0  0  0  0  0  0  0  0
    8.6417   34.8189   24.4580 H   0  0  0  0  0  0  0  0  0  0  0  0
    6.5525   38.8832   25.1893 H   0  0  0  0  0  0  0  0  0  0  0  0
    2.5820   34.4164   28.7785 H   0  0  0  0  0  0  0  0  0  0  0  0
    1.2719   36.2299   27.8064 H   0  0  0  0  0  0  0  0  0  0  0  0
    1.4752   37.1909   29.3102 H   0  0  0  0  0  0  0  0  0  0  0  0
    0.5431   35.6558   29.3446 H   0  0  0  0  0  0  0  0  0  0  0  0
   11.5969   30.5145   30.2539 H   0  0  0  0  0  0  0  0  0  0  0  0
   11.1733   30.7188   28.5330 H   0  0  0  0  0  0  0  0  0  0  0  0
   10.2776   33.7076   31.1389 H   0  0  0  0  0  0  0  0  0  0  0  0
   10.9809   32.2066   31.7985 H   0  0  0  0  0  0  0  0  0  0  0  0
   10.2767   37.2143   21.6762 H   0  0  0  0  0  0  0  0  0  0  0  0
    7.6994   38.9765   17.8313 H   0  0  0  0  0  0  0  0  0  0  0  0
    4.3621   38.6595   19.5976 H   0  0  0  0  0  0  0  0  0  0  0  0
    5.5438   37.5143   19.0571 H   0  0  0  0  0  0  0  0  0  0  0  0
  1 24  1  0  0  0  0
  1 40  1  0  0  0  0
  2  6  1  0  0  0  0
  2 41  1  0  0  0  0
  2 42  1  0  0  0  0
  3 32  1  0  0  0  0
  3 33  1  0  0  0  0
  4  5  1  0  0  0  0
  4 43  1  0  0  0  0
  5 24  2  0  0  0  0
  5 44  1  0  0  0  0
  6 45  1  0  0  0  0
  6 46  1  0  0  0  0
  6 47  1  0  0  0  0
  7  8  2  0  0  0  0
  7 25  1  0  0  0  0
  8 26  1  0  0  0  0
  8 48  1  0  0  0  0
  9  4  2  0  0  0  0
  9 10  1  0  0  0  0
 10  1  2  0  0  0  0
 10 49  1  0  0  0  0
 11 35  1  0  0  0  0
 11 50  1  0  0  0  0
 12 51  1  0  0  0  0
 12 52  1  0  0  0  0
 12 53  1  0  0  0  0
 13 11  2  0  0  0  0
 13 54  1  0  0  0  0
 14 19  1  0  0  0  0
 14 27  1  0  0  0  0
 15 14  2  0  0  0  0
 15 16  1  0  0  0  0
 16 17  2  0  0  0  0
 16 55  1  0  0  0  0
 17 18  1  0  0  0  0
 17 20  1  0  0  0  0
 18 56  1  0  0  0  0
 19 18  2  0  0  0  0
 19 28  1  0  0  0  0
 20  2  1  0  0  0  0
 21 15  1  0  0  0  0
 21 22  1  0  0  0  0
 21 57  1  1  0  0  0
 22  9  1  0  0  0  0
 22 58  1  0  0  0  0
 23 21  1  0  0  0  0
 23 26  1  0  0  0  0
 24  3  1  0  0  0  0
 25 23  2  0  0  0  0
 26 59  1  0  0  0  0
 28 29  1  0  0  0  0
 29 12  1  0  0  0  0
 29 30  1  0  0  0  0
 29 60  1  0  0  0  0
 30 61  1  0  0  0  0
 30 62  1  0  0  0  0
 30 63  1  0  0  0  0
 31  7  1  0  0  0  0
 31 34  2  0  0  0  0
 31 36  1  0  0  0  0
 32 64  1  0  0  0  0
 32 65  1  0  0  0  0
 33 66  1  0  0  0  0
 33 67  1  0  0  0  0
 34 13  1  0  0  0  0
 34 68  1  0  0  0  0
 35 36  2  0  0  0  0
 35 69  1  0  0  0  0
 36 37  1  0  0  0  0
 37 38  1  0  0  0  0
 37 39  2  0  0  0  0
 38 70  1  0  0  0  0
 38 71  1  0  0  0  0
M  END
