4yuw_ligand
 OpenBabel08222323353D

 24 24  0  0  1  0  0  0  0  0999 V2000
   17.5730   52.2450   -1.8590 N   0  3  0  0  0  0  0  0  0  0  0  0
   18.4430   53.0640   -0.9300 C   0  0  1  0  0  0  0  0  0  0  0  0
   19.8650   52.9310   -1.4380 C   0  0  0  0  0  0  0  0  0  0  0  0
   18.0340   54.5610   -0.9380 C   0  0  0  0  0  0  0  0  0  0  0  0
   19.0380   55.5000   -0.2410 C   0  0  0  0  0  0  0  0  0  0  0  0
   20.4620   55.3220   -0.7380 C   0  0  1  0  0  0  0  0  0  0  0  0
   21.4550   56.0710    0.1690 C   0  0  0  0  0  0  0  0  0  0  0  0
   20.8290   53.8330   -0.6000 C   0  0  0  0  0  0  0  0  0  0  0  0
   17.8649   51.2806   -1.8296 H   0  0  0  0  0  0  0  0  0  0  0  0
   17.6638   52.5949   -2.7999 H   0  0  0  0  0  0  0  0  0  0  0  0
   16.6109   52.3139   -1.5662 H   0  0  0  0  0  0  0  0  0  0  0  0
   18.3662   52.6720    0.0949 H   0  0  0  0  0  0  0  0  0  0  0  0
   19.9037   53.2410   -2.4927 H   0  0  0  0  0  0  0  0  0  0  0  0
   20.1841   51.8818   -1.3522 H   0  0  0  0  0  0  0  0  0  0  0  0
   17.0640   54.6552   -0.4279 H   0  0  0  0  0  0  0  0  0  0  0  0
   17.9309   54.8837   -1.9845 H   0  0  0  0  0  0  0  0  0  0  0  0
   19.0161   55.2963    0.8397 H   0  0  0  0  0  0  0  0  0  0  0  0
   18.7304   56.5401   -0.4244 H   0  0  0  0  0  0  0  0  0  0  0  0
   20.5490   55.6631   -1.7801 H   0  0  0  0  0  0  0  0  0  0  0  0
   22.4776   55.9278   -0.2101 H   0  0  0  0  0  0  0  0  0  0  0  0
   21.3851   55.6767    1.1935 H   0  0  0  0  0  0  0  0  0  0  0  0
   21.2119   57.1438    0.1716 H   0  0  0  0  0  0  0  0  0  0  0  0
   21.8593   53.6834   -0.9552 H   0  0  0  0  0  0  0  0  0  0  0  0
   20.7606   53.5437    0.4590 H   0  0  0  0  0  0  0  0  0  0  0  0
  1  2  1  0  0  0  0
  1  9  1  0  0  0  0
  1 10  1  0  0  0  0
  1 11  1  0  0  0  0
  2  3  1  0  0  0  0
  2  4  1  0  0  0  0
  2 12  1  1  0  0  0
  3  8  1  0  0  0  0
  3 13  1  0  0  0  0
  3 14  1  0  0  0  0
  4  5  1  0  0  0  0
  4 15  1  0  0  0  0
  4 16  1  0  0  0  0
  5  6  1  0  0  0  0
  5 17  1  0  0  0  0
  5 18  1  0  0  0  0
  6  7  1  0  0  0  0
  6  8  1  0  0  0  0
  6 19  1  6  0  0  0
  7 20  1  0  0  0  0
  7 21  1  0  0  0  0
  7 22  1  0  0  0  0
  8 23  1  0  0  0  0
  8 24  1  0  0  0  0
M  CHG  1   1   1
M  END
