4yux_ligand
 OpenBabel08222323353D

 20 21  0  0  1  0  0  0  0  0999 V2000
    4.0180    8.6040   38.4760 C   0  0  0  0  0  0  0  0  0  0  0  0
    4.1880    7.2860   38.8360 C   0  0  0  0  0  0  0  0  0  0  0  0
    2.9150    8.9730   37.7210 C   0  0  0  0  0  0  0  0  0  0  0  0
    3.2810    6.3160   38.4050 C   0  0  0  0  0  0  0  0  0  0  0  0
    1.9940    8.0030   37.3040 C   0  0  0  0  0  0  0  0  0  0  0  0
    2.2030    6.7020   37.6190 C   0  0  0  0  0  0  0  0  0  0  0  0
   -0.2480    7.8080   36.5480 C   0  0  2  0  0  3  0  0  0  0  0  0
   -0.4810    6.5830   37.3030 C   0  0  0  0  0  0  0  0  0  0  0  0
    0.8830    8.4390   36.5570 N   0  0  0  0  0  0  0  0  0  0  0  0
   -1.3420    8.3380   35.9030 N   0  0  0  0  0  0  0  0  0  0  0  0
    0.9890    5.5200   37.0330 S   0  0  0  0  0  0  0  0  0  0  0  0
    4.7430    9.3498   38.7814 H   0  0  0  0  0  0  0  0  0  0  0  0
    5.0295    7.0002   39.4566 H   0  0  0  0  0  0  0  0  0  0  0  0
    2.7652   10.0127   37.4532 H   0  0  0  0  0  0  0  0  0  0  0  0
    3.4163    5.2762   38.6800 H   0  0  0  0  0  0  0  0  0  0  0  0
   -1.3876    6.0780   36.9383 H   0  0  0  0  0  0  0  0  0  0  0  0
   -0.5938    6.8114   38.3731 H   0  0  0  0  0  0  0  0  0  0  0  0
    0.9736    9.2965   35.9936 H   0  0  0  0  0  0  0  0  0  0  0  0
   -1.2459    9.2028   35.3518 H   0  0  0  0  0  0  0  0  0  0  0  0
   -2.2569    7.8699   35.9714 H   0  0  0  0  0  0  0  0  0  0  0  0
  1  2  2  0  0  0  0
  1 12  1  0  0  0  0
  2 13  1  0  0  0  0
  3  1  1  0  0  0  0
  3 14  1  0  0  0  0
  4  2  1  0  0  0  0
  4 15  1  0  0  0  0
  5  3  2  0  0  0  0
  5  6  1  0  0  0  0
  6  4  2  0  0  0  0
  6 11  1  0  0  0  0
  7  8  1  0  0  0  0
  7  9  1  0  0  0  0
  7 10  1  1  0  0  0
  8 11  1  0  0  0  0
  8 16  1  0  0  0  0
  8 17  1  0  0  0  0
  9  5  1  0  0  0  0
  9 18  1  0  0  0  0
 10 19  1  0  0  0  0
 10 20  1  0  0  0  0
M  END
