4yve_ligand
 OpenBabel08222323353D

 38 40  0  0  0  0  0  0  0  0999 V2000
   49.3180  108.1110   35.4390 C   0  0  0  0  0  0  0  0  0  0  0  0
   49.0530  105.6780   35.3420 C   0  0  0  0  0  0  0  0  0  0  0  0
   48.0550  104.6880   35.4150 C   0  0  0  0  0  0  0  0  0  0  0  0
   48.2170  103.4570   34.7720 C   0  0  0  0  0  0  0  0  0  0  0  0
   49.3960  103.1850   34.0800 C   0  0  0  0  0  0  0  0  0  0  0  0
   50.4030  104.1500   34.0040 C   0  0  0  0  0  0  0  0  0  0  0  0
   50.2370  105.3850   34.6340 C   0  0  0  0  0  0  0  0  0  0  0  0
   51.6620  103.8880   33.2230 C   0  0  0  0  0  0  0  0  0  0  0  0
   51.3680  104.2180   31.7870 C   0  0  0  0  0  0  0  0  0  0  0  0
   48.8800  106.8700   36.0090 O   0  0  0  0  0  0  0  0  0  0  0  0
   50.9510  103.2500   29.5650 C   0  0  0  0  0  0  0  0  0  0  0  0
   50.5970  102.3380   27.5490 C   0  0  0  0  0  0  0  0  0  0  0  0
   50.4730  103.6280   27.1590 C   0  0  0  0  0  0  0  0  0  0  0  0
   50.5230  101.1950   26.5970 C   0  0  0  0  0  0  0  0  0  0  0  0
   51.2370  105.3720   31.4500 O   0  0  0  0  0  0  0  0  0  0  0  0
   51.2190  103.1890   30.9300 N   0  0  0  0  0  0  0  0  0  0  0  0
   50.8670  102.1800   28.8370 N   0  0  0  0  0  0  0  0  0  0  0  0
   50.7100  104.6840   28.5520 S   0  0  0  0  0  0  0  0  0  0  0  0
   50.3220  101.4100   25.2190 C   0  0  0  0  0  0  0  0  0  0  0  0
   50.2840  100.3270   24.3560 C   0  0  0  0  0  0  0  0  0  0  0  0
   50.4790   99.0960   24.7990 N   0  0  0  0  0  0  0  0  0  0  0  0
   50.7100   98.8530   26.0800 C   0  0  0  0  0  0  0  0  0  0  0  0
   50.7410   99.8720   27.0220 C   0  0  0  0  0  0  0  0  0  0  0  0
   49.0857  108.9343   36.1305 H   0  0  0  0  0  0  0  0  0  0  0  0
   48.8005  108.2782   34.4828 H   0  0  0  0  0  0  0  0  0  0  0  0
   50.4037  108.0724   35.2665 H   0  0  0  0  0  0  0  0  0  0  0  0
   47.1488  104.8826   35.9772 H   0  0  0  0  0  0  0  0  0  0  0  0
   47.4272  102.7156   34.8116 H   0  0  0  0  0  0  0  0  0  0  0  0
   49.5317  102.2226   33.5999 H   0  0  0  0  0  0  0  0  0  0  0  0
   51.0262  106.1261   34.5783 H   0  0  0  0  0  0  0  0  0  0  0  0
   51.9503  102.8305   33.3157 H   0  0  0  0  0  0  0  0  0  0  0  0
   52.4774  104.5245   33.5970 H   0  0  0  0  0  0  0  0  0  0  0  0
   50.2603  103.9617   26.1445 H   0  0  0  0  0  0  0  0  0  0  0  0
   51.3119  102.2731   31.3205 H   0  0  0  0  0  0  0  0  0  0  0  0
   50.1979  102.4167   24.8365 H   0  0  0  0  0  0  0  0  0  0  0  0
   50.0916  100.4908   23.3019 H   0  0  0  0  0  0  0  0  0  0  0  0
   50.8793   97.8317   26.4014 H   0  0  0  0  0  0  0  0  0  0  0  0
   50.9298   99.6521   28.0665 H   0  0  0  0  0  0  0  0  0  0  0  0
  1 24  1  0  0  0  0
  1 25  1  0  0  0  0
  1 26  1  0  0  0  0
  2  3  2  0  0  0  0
  2 10  1  0  0  0  0
  3 27  1  0  0  0  0
  4  3  1  0  0  0  0
  4 28  1  0  0  0  0
  5  4  2  0  0  0  0
  5 29  1  0  0  0  0
  6  5  1  0  0  0  0
  6  7  2  0  0  0  0
  7  2  1  0  0  0  0
  7 30  1  0  0  0  0
  8  6  1  0  0  0  0
  8 31  1  0  0  0  0
  8 32  1  0  0  0  0
  9  8  1  0  0  0  0
  9 15  2  0  0  0  0
 10  1  1  0  0  0  0
 11 16  1  0  0  0  0
 11 18  1  0  0  0  0
 12 13  2  0  0  0  0
 12 14  1  0  0  0  0
 12 17  1  0  0  0  0
 13 18  1  0  0  0  0
 13 33  1  0  0  0  0
 14 19  2  0  0  0  0
 14 23  1  0  0  0  0
 16  9  1  0  0  0  0
 16 34  1  0  0  0  0
 17 11  2  0  0  0  0
 19 20  1  0  0  0  0
 19 35  1  0  0  0  0
 20 21  2  0  0  0  0
 20 36  1  0  0  0  0
 21 22  1  0  0  0  0
 22 23  2  0  0  0  0
 22 37  1  0  0  0  0
 23 38  1  0  0  0  0
M  END
