4yw2_ligand
 OpenBabel08222323353D

 60 61  0  0  1  0  0  0  0  0999 V2000
   26.6890  -15.1890   50.4750 C   0  0  0  0  0  0  0  0  0  0  0  0
   25.6490  -14.3590   51.1810 C   0  0  2  0  0  0  0  0  0  0  0  0
   26.2360  -13.5350   52.3360 C   0  0  0  0  0  0  0  0  0  0  0  0
   27.0100  -12.3430   51.8010 C   0  0  1  0  0  0  0  0  0  0  0  0
   26.1020  -11.5340   50.8810 C   0  0  2  0  0  0  0  0  0  0  0  0
   25.6030  -12.4080   49.7350 C   0  0  2  0  0  0  0  0  0  0  0  0
   24.5880  -11.7370   48.8050 C   0  0  1  0  0  0  0  0  0  0  0  0
   24.0080  -12.7070   47.7950 C   0  0  1  0  0  0  0  0  0  0  0  0
   23.5450  -11.9170   46.5820 C   0  0  0  0  0  0  0  0  0  0  0  0
   26.3800   -9.1900   50.1490 C   0  0  0  0  0  0  0  0  0  0  0  0
   27.3480   -8.1520   49.6220 C   0  0  0  0  0  0  0  0  0  0  0  0
   26.8490  -10.4290   50.3070 N   0  0  0  0  0  0  0  0  0  0  0  0
   26.6700  -15.2220   49.2320 O   0  5  0  0  0  0  0  0  0  0  0  0
   27.4880  -15.8680   51.1610 O   0  0  0  0  0  0  0  0  0  0  0  0
   24.6630  -15.2890   51.6950 O   0  0  0  0  0  0  0  0  0  0  0  0
   27.5020  -11.5460   52.8870 O   0  0  0  0  0  0  0  0  0  0  0  0
   24.9290  -13.5450   50.2380 O   0  0  0  0  0  0  0  0  0  0  0  0
   23.5360  -11.1820   49.6040 O   0  0  0  0  0  0  0  0  0  0  0  0
   24.9840  -13.6750   47.3810 O   0  0  0  0  0  0  0  0  0  0  0  0
   22.5410  -12.6890   45.9550 O   0  0  0  0  0  0  0  0  0  0  0  0
   25.2390   -8.8670   50.4410 O   0  0  0  0  0  0  0  0  0  0  0  0
   20.7370  -16.0900   52.3640 C   0  0  2  0  0  0  0  0  0  0  0  0
   20.1470  -17.4630   52.0220 C   0  0  1  0  0  0  0  0  0  0  0  0
   21.1810  -18.6030   52.0650 C   0  0  2  0  0  0  0  0  0  0  0  0
   22.4880  -18.2280   51.3950 C   0  0  2  0  0  0  0  0  0  0  0  0
   22.9330  -16.8920   51.9320 C   0  0  1  0  0  0  0  0  0  0  0  0
   24.2370  -16.5130   51.2750 C   0  0  0  0  0  0  0  0  0  0  0  0
   19.8280  -15.0310   52.0280 O   0  0  0  0  0  0  0  0  0  0  0  0
   19.1040  -17.7360   52.9610 O   0  0  0  0  0  0  0  0  0  0  0  0
   20.6950  -19.7660   51.3920 O   0  0  0  0  0  0  0  0  0  0  0  0
   22.3120  -18.0940   49.9850 O   0  0  0  0  0  0  0  0  0  0  0  0
   21.9460  -15.9000   51.6330 O   0  0  0  0  0  0  0  0  0  0  0  0
   26.9127  -14.1703   52.9263 H   0  0  0  0  0  0  0  0  0  0  0  0
   25.4173  -13.1764   52.9772 H   0  0  0  0  0  0  0  0  0  0  0  0
   27.8691  -12.7066   51.2182 H   0  0  0  0  0  0  0  0  0  0  0  0
   25.2468  -11.1493   51.4559 H   0  0  0  0  0  0  0  0  0  0  0  0
   26.4766  -12.7212   49.1446 H   0  0  0  0  0  0  0  0  0  0  0  0
   25.0926  -10.9265   48.2588 H   0  0  0  0  0  0  0  0  0  0  0  0
   23.1514  -13.2299   48.2454 H   0  0  0  0  0  0  0  0  0  0  0  0
   24.3857  -11.7551   45.8913 H   0  0  0  0  0  0  0  0  0  0  0  0
   23.1358  -10.9454   46.8957 H   0  0  0  0  0  0  0  0  0  0  0  0
   26.8364   -7.1817   49.5401 H   0  0  0  0  0  0  0  0  0  0  0  0
   27.7116   -8.4596   48.6304 H   0  0  0  0  0  0  0  0  0  0  0  0
   28.1993   -8.0605   50.3125 H   0  0  0  0  0  0  0  0  0  0  0  0
   27.7857  -10.6104   50.0075 H   0  0  0  0  0  0  0  0  0  0  0  0
   27.9987  -10.8137   52.5413 H   0  0  0  0  0  0  0  0  0  0  0  0
   22.9223  -10.7226   49.0428 H   0  0  0  0  0  0  0  0  0  0  0  0
   25.2763  -14.1714   48.1365 H   0  0  0  0  0  0  0  0  0  0  0  0
   22.2223  -12.2288   45.1874 H   0  0  0  0  0  0  0  0  0  0  0  0
   20.9504  -16.0520   53.4424 H   0  0  0  0  0  0  0  0  0  0  0  0
   19.7236  -17.4195   51.0077 H   0  0  0  0  0  0  0  0  0  0  0  0
   21.3763  -18.8483   53.1194 H   0  0  0  0  0  0  0  0  0  0  0  0
   23.2468  -18.9961   51.6054 H   0  0  0  0  0  0  0  0  0  0  0  0
   23.0711  -16.9579   53.0213 H   0  0  0  0  0  0  0  0  0  0  0  0
   24.9987  -17.2647   51.5294 H   0  0  0  0  0  0  0  0  0  0  0  0
   24.0955  -16.4889   50.1844 H   0  0  0  0  0  0  0  0  0  0  0  0
   20.2178  -14.1957   52.2578 H   0  0  0  0  0  0  0  0  0  0  0  0
   18.4650  -17.0335   52.9359 H   0  0  0  0  0  0  0  0  0  0  0  0
   20.5596  -19.5655   50.4733 H   0  0  0  0  0  0  0  0  0  0  0  0
   22.0307  -18.9255   49.6217 H   0  0  0  0  0  0  0  0  0  0  0  0
  1 13  1  0  0  0  0
  1 14  2  0  0  0  0
  2  1  1  6  0  0  0
  2  3  1  0  0  0  0
  2 17  1  0  0  0  0
  3  4  1  0  0  0  0
  3 33  1  0  0  0  0
  3 34  1  0  0  0  0
  4  5  1  0  0  0  0
  4 16  1  0  0  0  0
  4 35  1  6  0  0  0
  5 12  1  0  0  0  0
  5 36  1  1  0  0  0
  6  5  1  0  0  0  0
  6  7  1  0  0  0  0
  6 37  1  6  0  0  0
  7  8  1  0  0  0  0
  7 18  1  0  0  0  0
  7 38  1  6  0  0  0
  8  9  1  0  0  0  0
  8 19  1  0  0  0  0
  8 39  1  1  0  0  0
  9 20  1  0  0  0  0
  9 40  1  0  0  0  0
  9 41  1  0  0  0  0
 10 11  1  0  0  0  0
 10 21  2  0  0  0  0
 11 42  1  0  0  0  0
 11 43  1  0  0  0  0
 11 44  1  0  0  0  0
 12 10  1  0  0  0  0
 12 45  1  0  0  0  0
 15  2  1  0  0  0  0
 16 46  1  0  0  0  0
 17  6  1  0  0  0  0
 18 47  1  0  0  0  0
 19 48  1  0  0  0  0
 20 49  1  0  0  0  0
 22 28  1  0  0  0  0
 22 32  1  0  0  0  0
 22 50  1  1  0  0  0
 23 22  1  0  0  0  0
 23 29  1  0  0  0  0
 23 51  1  6  0  0  0
 24 23  1  0  0  0  0
 24 30  1  0  0  0  0
 24 52  1  1  0  0  0
 25 24  1  0  0  0  0
 25 31  1  0  0  0  0
 25 53  1  1  0  0  0
 26 25  1  0  0  0  0
 26 27  1  0  0  0  0
 26 32  1  0  0  0  0
 26 54  1  1  0  0  0
 27 15  1  0  0  0  0
 27 55  1  0  0  0  0
 27 56  1  0  0  0  0
 28 57  1  0  0  0  0
 29 58  1  0  0  0  0
 30 59  1  0  0  0  0
 31 60  1  0  0  0  0
M  CHG  1  13  -1
M  END
