4yyi_ligand
 OpenBabel08222323353D

 83 82  0  0  1  0  0  0  0  0999 V2000
   45.6510  -22.7130  -19.5510 N   0  3  0  0  0  0  0  0  0  0  0  0
   46.7650  -23.1150  -20.4910 C   0  0  0  0  0  0  0  0  0  0  0  0
   48.0900  -22.3980  -20.1500 C   0  0  0  0  0  0  0  0  0  0  0  0
   49.1570  -22.9510  -20.3770 O   0  0  0  0  0  0  0  0  0  0  0  0
   53.2190  -14.6290  -22.2860 O   0  0  0  0  0  0  0  0  0  0  0  0
   52.1720  -14.5500  -22.7850 C   0  0  0  0  0  0  0  0  0  0  0  0
   52.2720  -13.6400  -24.0400 C   0  0  0  0  0  0  0  0  0  0  0  0
   51.1210  -15.2350  -22.5510 N   0  0  0  0  0  0  0  0  0  0  0  0
   51.1680  -16.1510  -21.3280 C   0  0  0  0  0  0  0  0  0  0  0  0
   49.9020  -16.9050  -21.3090 C   0  0  0  0  0  0  0  0  0  0  0  0
   50.0490  -18.0600  -20.2390 C   0  0  0  0  0  0  0  0  0  0  0  0
   48.7580  -18.8790  -20.0570 C   0  0  0  0  0  0  0  0  0  0  0  0
   49.0990  -20.2330  -19.3590 C   0  0  2  0  0  0  0  0  0  0  0  0
   47.9690  -21.1790  -19.5840 N   0  0  0  0  0  0  0  0  0  0  0  0
   49.3680  -19.9990  -17.8830 C   0  0  0  0  0  0  0  0  0  0  0  0
   48.4040  -20.0100  -17.0700 O   0  0  0  0  0  0  0  0  0  0  0  0
   50.6370  -19.7660  -17.5140 N   0  0  0  0  0  0  0  0  0  0  0  0
   51.1410  -19.6380  -16.0570 C   0  0  0  0  0  0  0  0  0  0  0  0
   51.2980  -20.8910  -15.1790 C   0  0  0  0  0  0  0  0  0  0  0  0
   51.2800  -22.0800  -15.6810 O   0  0  0  0  0  0  0  0  0  0  0  0
   51.4340  -20.5120  -13.9120 N   0  0  0  0  0  0  0  0  0  0  0  0
   51.5630  -21.4740  -12.7890 C   0  0  0  0  0  0  0  0  0  0  0  0
   50.3430  -21.2330  -11.9500 C   0  0  0  0  0  0  0  0  0  0  0  0
   49.2620  -21.1920  -12.5010 O   0  0  0  0  0  0  0  0  0  0  0  0
   53.2590  -26.2000   -5.9790 O   0  0  0  0  0  0  0  0  0  0  0  0
   52.2380  -25.9910   -5.2820 C   0  0  0  0  0  0  0  0  0  0  0  0
   52.1670  -26.4400   -3.7130 C   0  0  0  0  0  0  0  0  0  0  0  0
   51.0840  -25.4610   -5.4940 N   0  0  0  0  0  0  0  0  0  0  0  0
   50.6160  -24.9320   -6.8650 C   0  0  0  0  0  0  0  0  0  0  0  0
   50.3010  -23.4470   -6.7930 C   0  0  0  0  0  0  0  0  0  0  0  0
   50.0360  -22.9820   -8.2670 C   0  0  0  0  0  0  0  0  0  0  0  0
   49.6920  -21.4930   -8.3550 C   0  0  0  0  0  0  0  0  0  0  0  0
   49.2430  -21.0290   -9.7520 C   0  0  2  0  0  0  0  0  0  0  0  0
   50.4760  -21.0530  -10.6120 N   0  0  0  0  0  0  0  0  0  0  0  0
   48.8740  -19.6010   -9.5480 C   0  0  0  0  0  0  0  0  0  0  0  0
   49.4260  -18.7440  -10.1940 O   0  0  0  0  0  0  0  0  0  0  0  0
   47.9390  -19.2780   -8.6520 N   0  0  0  0  0  0  0  0  0  0  0  0
   47.9860  -17.9320   -8.0370 C   0  0  0  0  0  0  0  0  0  0  0  0
   46.6620  -17.3600   -7.5490 C   0  0  0  0  0  0  0  0  0  0  0  0
   45.8550  -16.8420   -8.3190 O   0  5  0  0  0  0  0  0  0  0  0  0
   46.3390  -17.3900   -6.3630 O   0  0  0  0  0  0  0  0  0  0  0  0
   44.8055  -23.1998  -19.8044 H   0  0  0  0  0  0  0  0  0  0  0  0
   45.4986  -21.7187  -19.6163 H   0  0  0  0  0  0  0  0  0  0  0  0
   45.9061  -22.9525  -18.6057 H   0  0  0  0  0  0  0  0  0  0  0  0
   46.4741  -22.8553  -21.5196 H   0  0  0  0  0  0  0  0  0  0  0  0
   46.9189  -24.2016  -20.4167 H   0  0  0  0  0  0  0  0  0  0  0  0
   51.2834  -13.5620  -24.5160 H   0  0  0  0  0  0  0  0  0  0  0  0
   52.9886  -14.0750  -24.7522 H   0  0  0  0  0  0  0  0  0  0  0  0
   52.6147  -12.6386  -23.7405 H   0  0  0  0  0  0  0  0  0  0  0  0
   50.3116  -15.1759  -23.1352 H   0  0  0  0  0  0  0  0  0  0  0  0
   51.2654  -15.5522  -20.4104 H   0  0  0  0  0  0  0  0  0  0  0  0
   52.0193  -16.8432  -21.4063 H   0  0  0  0  0  0  0  0  0  0  0  0
   49.7074  -17.3363  -22.3020 H   0  0  0  0  0  0  0  0  0  0  0  0
   49.0727  -16.2385  -21.0298 H   0  0  0  0  0  0  0  0  0  0  0  0
   50.3178  -17.6099  -19.2720 H   0  0  0  0  0  0  0  0  0  0  0  0
   50.8517  -18.7385  -20.5635 H   0  0  0  0  0  0  0  0  0  0  0  0
   48.3065  -19.0763  -21.0404 H   0  0  0  0  0  0  0  0  0  0  0  0
   48.0489  -18.3134  -19.4347 H   0  0  0  0  0  0  0  0  0  0  0  0
   50.0070  -20.6549  -19.8145 H   0  0  0  0  0  0  0  0  0  0  0  0
   47.0565  -20.8896  -19.2949 H   0  0  0  0  0  0  0  0  0  0  0  0
   51.3145  -19.6667  -18.2428 H   0  0  0  0  0  0  0  0  0  0  0  0
   50.4369  -18.9727  -15.5359 H   0  0  0  0  0  0  0  0  0  0  0  0
   52.1303  -19.1595  -16.1052 H   0  0  0  0  0  0  0  0  0  0  0  0
   51.4501  -19.5336  -13.7060 H   0  0  0  0  0  0  0  0  0  0  0  0
   52.4780  -21.2773  -12.2110 H   0  0  0  0  0  0  0  0  0  0  0  0
   51.5804  -22.5085  -13.1625 H   0  0  0  0  0  0  0  0  0  0  0  0
   51.1875  -26.1627   -3.2963 H   0  0  0  0  0  0  0  0  0  0  0  0
   52.9627  -25.9307   -3.1495 H   0  0  0  0  0  0  0  0  0  0  0  0
   52.3029  -27.5289   -3.6367 H   0  0  0  0  0  0  0  0  0  0  0  0
   50.4523  -25.3878   -4.7223 H   0  0  0  0  0  0  0  0  0  0  0  0
   49.7117  -25.4777   -7.1723 H   0  0  0  0  0  0  0  0  0  0  0  0
   51.4126  -25.0959   -7.6056 H   0  0  0  0  0  0  0  0  0  0  0  0
   51.1532  -22.8969   -6.3674 H   0  0  0  0  0  0  0  0  0  0  0  0
   49.4082  -23.2765   -6.1734 H   0  0  0  0  0  0  0  0  0  0  0  0
   49.1964  -23.5635   -8.6756 H   0  0  0  0  0  0  0  0  0  0  0  0
   50.9392  -23.1720   -8.8654 H   0  0  0  0  0  0  0  0  0  0  0  0
   50.5841  -20.9158   -8.0704 H   0  0  0  0  0  0  0  0  0  0  0  0
   48.8784  -21.2847   -7.6447 H   0  0  0  0  0  0  0  0  0  0  0  0
   48.4230  -21.6315  -10.1698 H   0  0  0  0  0  0  0  0  0  0  0  0
   51.3814  -20.9379  -10.2034 H   0  0  0  0  0  0  0  0  0  0  0  0
   47.2233  -19.9300   -8.4018 H   0  0  0  0  0  0  0  0  0  0  0  0
   48.3944  -17.2370   -8.7854 H   0  0  0  0  0  0  0  0  0  0  0  0
   48.6661  -17.9827   -7.1740 H   0  0  0  0  0  0  0  0  0  0  0  0
  1 42  1  0  0  0  0
  1 43  1  0  0  0  0
  1 44  1  0  0  0  0
  2  1  1  0  0  0  0
  2 45  1  0  0  0  0
  2 46  1  0  0  0  0
  3  2  1  0  0  0  0
  3  4  2  0  0  0  0
  6  5  2  0  0  0  0
  6  7  1  0  0  0  0
  7 47  1  0  0  0  0
  7 48  1  0  0  0  0
  7 49  1  0  0  0  0
  8  6  1  0  0  0  0
  8 50  1  0  0  0  0
  9  8  1  0  0  0  0
  9 51  1  0  0  0  0
  9 52  1  0  0  0  0
 10  9  1  0  0  0  0
 10 53  1  0  0  0  0
 10 54  1  0  0  0  0
 11 10  1  0  0  0  0
 11 55  1  0  0  0  0
 11 56  1  0  0  0  0
 12 11  1  0  0  0  0
 12 57  1  0  0  0  0
 12 58  1  0  0  0  0
 13 12  1  0  0  0  0
 13 14  1  0  0  0  0
 13 59  1  6  0  0  0
 14  3  1  0  0  0  0
 14 60  1  0  0  0  0
 15 13  1  0  0  0  0
 15 16  2  0  0  0  0
 17 15  1  0  0  0  0
 17 61  1  0  0  0  0
 18 17  1  0  0  0  0
 18 62  1  0  0  0  0
 18 63  1  0  0  0  0
 19 18  1  0  0  0  0
 19 20  2  0  0  0  0
 21 19  1  0  0  0  0
 21 64  1  0  0  0  0
 22 21  1  0  0  0  0
 22 65  1  0  0  0  0
 22 66  1  0  0  0  0
 23 22  1  0  0  0  0
 23 24  2  0  0  0  0
 26 25  2  0  0  0  0
 26 27  1  0  0  0  0
 27 67  1  0  0  0  0
 27 68  1  0  0  0  0
 27 69  1  0  0  0  0
 28 26  1  0  0  0  0
 28 70  1  0  0  0  0
 29 28  1  0  0  0  0
 29 71  1  0  0  0  0
 29 72  1  0  0  0  0
 30 29  1  0  0  0  0
 30 73  1  0  0  0  0
 30 74  1  0  0  0  0
 31 30  1  0  0  0  0
 31 75  1  0  0  0  0
 31 76  1  0  0  0  0
 32 31  1  0  0  0  0
 32 77  1  0  0  0  0
 32 78  1  0  0  0  0
 33 32  1  0  0  0  0
 33 34  1  0  0  0  0
 33 35  1  0  0  0  0
 33 79  1  6  0  0  0
 34 23  1  0  0  0  0
 34 80  1  0  0  0  0
 35 36  2  0  0  0  0
 35 37  1  0  0  0  0
 37 38  1  0  0  0  0
 37 81  1  0  0  0  0
 38 39  1  0  0  0  0
 38 82  1  0  0  0  0
 38 83  1  0  0  0  0
 39 40  1  0  0  0  0
 39 41  2  0  0  0  0
M  CHG  2   1   1  40  -1
M  END
