4yym_ligand
 OpenBabel08222323353D

114113  0  0  1  0  0  0  0  0999 V2000
   -2.1700   40.2360    7.7090 C   0  0  0  0  0  0  0  0  0  0  0  0
   -4.1390   40.7740    9.0560 N   0  3  0  0  0  0  0  0  0  0  0  0
   -2.5110   40.9500    6.7200 O   0  0  0  0  0  0  0  0  0  0  0  0
   -3.2050   39.6600    8.6460 C   0  0  1  0  0  0  0  0  0  0  0  0
   -3.9930   38.5240    8.0160 C   0  0  0  0  0  0  0  0  0  0  0  0
   -3.7510   36.3800    6.9640 C   0  0  0  0  0  0  0  0  0  0  0  0
   -3.0290   35.0840    6.8270 C   0  0  0  0  0  0  0  0  0  0  0  0
   -3.3860   37.1300    8.2130 C   0  0  0  0  0  0  0  0  0  0  0  0
   -3.4270   34.2880    5.7480 N   0  0  0  0  0  0  0  0  0  0  0  0
   -6.4200   32.5260    4.9280 C   0  0  0  0  0  0  0  0  0  0  0  0
   -3.6430   32.3440    6.9110 O   0  0  0  0  0  0  0  0  0  0  0  0
   -5.3390   31.4950    4.7090 C   0  0  0  0  0  0  0  0  0  0  0  0
   -4.0500   32.2080    4.6220 C   0  0  0  0  0  0  0  0  0  0  0  0
   -3.6590   32.9720    5.8730 C   0  0  0  0  0  0  0  0  0  0  0  0
   -0.8860   40.0110    8.0250 N   0  0  0  0  0  0  0  0  0  0  0  0
    0.2250   40.5050    7.1720 C   0  0  0  0  0  0  0  0  0  0  0  0
    0.2430   42.0280    7.0450 C   0  0  0  0  0  0  0  0  0  0  0  0
    0.0860   42.7200    8.0540 O   0  0  0  0  0  0  0  0  0  0  0  0
    0.4510   42.5320    5.8200 N   0  0  0  0  0  0  0  0  0  0  0  0
    0.4760   43.9710    5.5270 C   0  0  0  0  0  0  0  0  0  0  0  0
   -0.8570   44.7200    5.5670 C   0  0  0  0  0  0  0  0  0  0  0  0
   -0.9080   45.9550    5.3780 O   0  0  0  0  0  0  0  0  0  0  0  0
   -3.4740   45.5150    7.1250 C   0  0  0  0  0  0  0  0  0  0  0  0
   -1.9490   44.0110    5.8270 N   0  0  0  0  0  0  0  0  0  0  0  0
   -3.1800   45.0530    8.2420 O   0  0  0  0  0  0  0  0  0  0  0  0
   -3.2870   44.6720    5.8650 C   0  0  1  0  0  0  0  0  0  0  0  0
   -4.3600   43.5660    5.7150 C   0  0  0  0  0  0  0  0  0  0  0  0
   -6.2270   44.1390    4.1580 C   0  0  0  0  0  0  0  0  0  0  0  0
   -7.7000   44.5170    4.1650 C   0  0  0  0  0  0  0  0  0  0  0  0
   -5.7760   44.1150    5.6080 C   0  0  0  0  0  0  0  0  0  0  0  0
   -8.1990   44.4470    2.8040 N   0  0  0  0  0  0  0  0  0  0  0  0
   -6.5490   44.2490   -0.4120 C   0  0  0  0  0  0  0  0  0  0  0  0
   -7.5800   46.5600    2.1510 O   0  0  0  0  0  0  0  0  0  0  0  0
   -7.7670   45.1170   -0.6120 C   0  0  0  0  0  0  0  0  0  0  0  0
   -8.7250   45.1950    0.5470 C   0  0  0  0  0  0  0  0  0  0  0  0
   -8.0970   45.4550    1.9030 C   0  0  0  0  0  0  0  0  0  0  0  0
   -3.9850   46.7440    6.9590 N   0  0  0  0  0  0  0  0  0  0  0  0
   -4.2800   47.6720    8.0750 C   0  0  0  0  0  0  0  0  0  0  0  0
   -3.1040   48.5460    8.4680 C   0  0  0  0  0  0  0  0  0  0  0  0
   -3.2090   49.3110    9.4210 O   0  0  0  0  0  0  0  0  0  0  0  0
   -2.0190   48.4480    7.7040 N   0  0  0  0  0  0  0  0  0  0  0  0
   -0.7640   49.1930    7.9870 C   0  0  2  0  0  0  0  0  0  0  0  0
   -0.7210   50.7160    7.7040 C   0  0  0  0  0  0  0  0  0  0  0  0
    0.3550   51.3390    7.7670 O   0  0  0  0  0  0  0  0  0  0  0  0
    0.4440   48.4880    7.3440 C   0  0  0  0  0  0  0  0  0  0  0  0
    1.0040   47.3250    8.1840 C   0  0  0  0  0  0  0  0  0  0  0  0
    2.3870   46.8700    7.6980 C   0  0  0  0  0  0  0  0  0  0  0  0
    1.0010   47.7100    9.6640 C   0  0  0  0  0  0  0  0  0  0  0  0
   -1.8840   51.3200    7.4700 N   0  0  0  0  0  0  0  0  0  0  0  0
   -1.9420   52.7120    7.0390 C   0  0  0  0  0  0  0  0  0  0  0  0
   -2.9640   53.4940    7.8170 C   0  0  0  0  0  0  0  0  0  0  0  0
   -2.6960   54.6070    8.2500 O   0  5  0  0  0  0  0  0  0  0  0  0
   -4.0760   53.0270    8.0260 O   0  0  0  0  0  0  0  0  0  0  0  0
   -4.8398   40.4112    9.6832 H   0  0  0  0  0  0  0  0  0  0  0  0
   -4.5862   41.1560    8.2374 H   0  0  0  0  0  0  0  0  0  0  0  0
   -3.6144   41.4982    9.5211 H   0  0  0  0  0  0  0  0  0  0  0  0
   -2.6936   39.2711    9.5388 H   0  0  0  0  0  0  0  0  0  0  0  0
   -4.0643   38.7159    6.9352 H   0  0  0  0  0  0  0  0  0  0  0  0
   -5.0013   38.5227    8.4556 H   0  0  0  0  0  0  0  0  0  0  0  0
   -4.8322   36.1781    6.9805 H   0  0  0  0  0  0  0  0  0  0  0  0
   -3.5087   37.0091    6.0948 H   0  0  0  0  0  0  0  0  0  0  0  0
   -3.1872   34.5078    7.7506 H   0  0  0  0  0  0  0  0  0  0  0  0
   -1.9573   35.3029    6.7104 H   0  0  0  0  0  0  0  0  0  0  0  0
   -3.8156   36.6408    9.0996 H   0  0  0  0  0  0  0  0  0  0  0  0
   -2.2934   37.1938    8.3227 H   0  0  0  0  0  0  0  0  0  0  0  0
   -3.5429   34.7148    4.8511 H   0  0  0  0  0  0  0  0  0  0  0  0
   -7.3965   32.0243    4.9974 H   0  0  0  0  0  0  0  0  0  0  0  0
   -6.4296   33.2320    4.0846 H   0  0  0  0  0  0  0  0  0  0  0  0
   -6.2216   33.0727    5.8616 H   0  0  0  0  0  0  0  0  0  0  0  0
   -5.5278   30.9470    3.7741 H   0  0  0  0  0  0  0  0  0  0  0  0
   -5.3197   30.7877    5.5512 H   0  0  0  0  0  0  0  0  0  0  0  0
   -4.1106   32.9239    3.7890 H   0  0  0  0  0  0  0  0  0  0  0  0
   -3.2632   31.4681    4.4132 H   0  0  0  0  0  0  0  0  0  0  0  0
   -0.6713   39.4977    8.8559 H   0  0  0  0  0  0  0  0  0  0  0  0
    0.1169   40.0700    6.1675 H   0  0  0  0  0  0  0  0  0  0  0  0
    1.1784   40.1780    7.6126 H   0  0  0  0  0  0  0  0  0  0  0  0
    0.5971   41.8932    5.0646 H   0  0  0  0  0  0  0  0  0  0  0  0
    0.8941   44.0951    4.5172 H   0  0  0  0  0  0  0  0  0  0  0  0
    1.1435   44.4458    6.2611 H   0  0  0  0  0  0  0  0  0  0  0  0
   -1.8748   43.0286    5.9984 H   0  0  0  0  0  0  0  0  0  0  0  0
   -3.3659   45.3487    5.0014 H   0  0  0  0  0  0  0  0  0  0  0  0
   -4.3065   42.9056    6.5930 H   0  0  0  0  0  0  0  0  0  0  0  0
   -4.1401   42.9865    4.8063 H   0  0  0  0  0  0  0  0  0  0  0  0
   -5.6471   44.8836    3.5929 H   0  0  0  0  0  0  0  0  0  0  0  0
   -6.0923   43.1468    3.7026 H   0  0  0  0  0  0  0  0  0  0  0  0
   -7.8189   45.5399    4.5518 H   0  0  0  0  0  0  0  0  0  0  0  0
   -8.2600   43.8166    4.8021 H   0  0  0  0  0  0  0  0  0  0  0  0
   -5.7995   45.1380    6.0117 H   0  0  0  0  0  0  0  0  0  0  0  0
   -6.4573   43.4759    6.1888 H   0  0  0  0  0  0  0  0  0  0  0  0
   -8.6465   43.6016    2.5122 H   0  0  0  0  0  0  0  0  0  0  0  0
   -5.9294   44.2716   -1.3206 H   0  0  0  0  0  0  0  0  0  0  0  0
   -6.8649   43.2150   -0.2093 H   0  0  0  0  0  0  0  0  0  0  0  0
   -5.9647   44.6276    0.4396 H   0  0  0  0  0  0  0  0  0  0  0  0
   -8.3198   44.7252   -1.4785 H   0  0  0  0  0  0  0  0  0  0  0  0
   -7.4197   46.1378   -0.8296 H   0  0  0  0  0  0  0  0  0  0  0  0
   -9.2663   44.2391    0.6030 H   0  0  0  0  0  0  0  0  0  0  0  0
   -9.4370   46.0082    0.3428 H   0  0  0  0  0  0  0  0  0  0  0  0
   -4.1781   47.0517    6.0273 H   0  0  0  0  0  0  0  0  0  0  0  0
   -4.5791   47.0778    8.9510 H   0  0  0  0  0  0  0  0  0  0  0  0
   -5.1123   48.3248    7.7731 H   0  0  0  0  0  0  0  0  0  0  0  0
   -2.0491   47.8473    6.9050 H   0  0  0  0  0  0  0  0  0  0  0  0
   -0.6281   49.1073    9.0752 H   0  0  0  0  0  0  0  0  0  0  0  0
    1.2436   49.2299    7.2023 H   0  0  0  0  0  0  0  0  0  0  0  0
    0.1340   48.0915    6.3659 H   0  0  0  0  0  0  0  0  0  0  0  0
    0.3228   46.4698    8.0630 H   0  0  0  0  0  0  0  0  0  0  0  0
    2.7424   46.0409    8.3275 H   0  0  0  0  0  0  0  0  0  0  0  0
    3.0939   47.7101    7.7649 H   0  0  0  0  0  0  0  0  0  0  0  0
    2.3159   46.5328    6.6534 H   0  0  0  0  0  0  0  0  0  0  0  0
   -0.0104   48.0269    9.9584 H   0  0  0  0  0  0  0  0  0  0  0  0
    1.7070   48.5372    9.8291 H   0  0  0  0  0  0  0  0  0  0  0  0
    1.3041   46.8429   10.2691 H   0  0  0  0  0  0  0  0  0  0  0  0
   -2.7349   50.8090    7.5922 H   0  0  0  0  0  0  0  0  0  0  0  0
   -2.2060   52.7438    5.9716 H   0  0  0  0  0  0  0  0  0  0  0  0
   -0.9537   53.1721    7.1862 H   0  0  0  0  0  0  0  0  0  0  0  0
  1  3  2  0  0  0  0
  1  4  1  0  0  0  0
  2 54  1  0  0  0  0
  2 55  1  0  0  0  0
  2 56  1  0  0  0  0
  4  2  1  0  0  0  0
  4  5  1  0  0  0  0
  4 57  1  1  0  0  0
  5  8  1  0  0  0  0
  5 58  1  0  0  0  0
  5 59  1  0  0  0  0
  6  7  1  0  0  0  0
  6 60  1  0  0  0  0
  6 61  1  0  0  0  0
  7  9  1  0  0  0  0
  7 62  1  0  0  0  0
  7 63  1  0  0  0  0
  8  6  1  0  0  0  0
  8 64  1  0  0  0  0
  8 65  1  0  0  0  0
  9 14  1  0  0  0  0
  9 66  1  0  0  0  0
 10 67  1  0  0  0  0
 10 68  1  0  0  0  0
 10 69  1  0  0  0  0
 12 10  1  0  0  0  0
 12 70  1  0  0  0  0
 12 71  1  0  0  0  0
 13 12  1  0  0  0  0
 13 72  1  0  0  0  0
 13 73  1  0  0  0  0
 14 11  2  0  0  0  0
 14 13  1  0  0  0  0
 15  1  1  0  0  0  0
 15 74  1  0  0  0  0
 16 15  1  0  0  0  0
 16 75  1  0  0  0  0
 16 76  1  0  0  0  0
 17 16  1  0  0  0  0
 17 18  2  0  0  0  0
 19 17  1  0  0  0  0
 19 77  1  0  0  0  0
 20 19  1  0  0  0  0
 20 78  1  0  0  0  0
 20 79  1  0  0  0  0
 21 20  1  0  0  0  0
 21 22  2  0  0  0  0
 23 25  2  0  0  0  0
 23 37  1  0  0  0  0
 24 21  1  0  0  0  0
 24 80  1  0  0  0  0
 26 23  1  0  0  0  0
 26 24  1  0  0  0  0
 26 81  1  6  0  0  0
 27 26  1  0  0  0  0
 27 82  1  0  0  0  0
 27 83  1  0  0  0  0
 28 30  1  0  0  0  0
 28 84  1  0  0  0  0
 28 85  1  0  0  0  0
 29 28  1  0  0  0  0
 29 86  1  0  0  0  0
 29 87  1  0  0  0  0
 30 27  1  0  0  0  0
 30 88  1  0  0  0  0
 30 89  1  0  0  0  0
 31 29  1  0  0  0  0
 31 90  1  0  0  0  0
 32 91  1  0  0  0  0
 32 92  1  0  0  0  0
 32 93  1  0  0  0  0
 34 32  1  0  0  0  0
 34 94  1  0  0  0  0
 34 95  1  0  0  0  0
 35 34  1  0  0  0  0
 35 36  1  0  0  0  0
 35 96  1  0  0  0  0
 35 97  1  0  0  0  0
 36 31  1  0  0  0  0
 36 33  2  0  0  0  0
 37 38  1  0  0  0  0
 37 98  1  0  0  0  0
 38 39  1  0  0  0  0
 38 99  1  0  0  0  0
 38100  1  0  0  0  0
 39 40  2  0  0  0  0
 39 41  1  0  0  0  0
 41 42  1  0  0  0  0
 41101  1  0  0  0  0
 42 43  1  0  0  0  0
 42 45  1  0  0  0  0
 42102  1  1  0  0  0
 43 44  2  0  0  0  0
 43 49  1  0  0  0  0
 45 46  1  0  0  0  0
 45103  1  0  0  0  0
 45104  1  0  0  0  0
 46 47  1  0  0  0  0
 46 48  1  0  0  0  0
 46105  1  0  0  0  0
 47106  1  0  0  0  0
 47107  1  0  0  0  0
 47108  1  0  0  0  0
 48109  1  0  0  0  0
 48110  1  0  0  0  0
 48111  1  0  0  0  0
 49 50  1  0  0  0  0
 49112  1  0  0  0  0
 50 51  1  0  0  0  0
 50113  1  0  0  0  0
 50114  1  0  0  0  0
 51 52  1  0  0  0  0
 51 53  2  0  0  0  0
M  CHG  2   2   1  52  -1
M  END
