4yzm_ligand
 OpenBabel08222323353D

 82 87  0  0  1  0  0  0  0  0999 V2000
  -21.6110  -10.4730  -30.4760 C   0  0  0  0  0  0  0  0  0  0  0  0
  -22.4590  -10.0990  -29.4240 C   0  0  0  0  0  0  0  0  0  0  0  0
  -23.7990  -10.4460  -29.5550 C   0  0  0  0  0  0  0  0  0  0  0  0
  -24.2160  -11.1180  -30.7060 N   0  0  0  0  0  0  0  0  0  0  0  0
  -22.0750  -11.1100  -31.5840 N   0  0  0  0  0  0  0  0  0  0  0  0
  -14.3050  -14.8380  -37.2370 C   0  0  0  0  0  0  0  0  0  0  0  0
  -13.4100  -15.8890  -37.9410 C   0  0  0  0  0  0  0  0  0  0  0  0
  -14.1920  -17.1000  -38.2900 N   0  3  1  0  0  0  0  0  0  0  0  0
  -13.4550  -18.0020  -39.1970 C   0  0  0  0  0  0  0  0  0  0  0  0
  -14.5960  -17.8040  -37.0570 C   0  0  0  0  0  0  0  0  0  0  0  0
  -15.3670  -16.8770  -36.0710 C   0  0  0  0  0  0  0  0  0  0  0  0
  -15.4270  -15.4280  -36.4390 N   0  3  2  0  0  0  0  0  0  0  0  0
  -16.8150  -14.8850  -36.6240 C   0  0  0  0  0  0  0  0  0  0  0  0
  -17.1070  -13.6090  -35.7640 C   0  0  0  0  0  0  0  0  0  0  0  0
  -18.5380  -13.0120  -36.0210 C   0  0  0  0  0  0  0  0  0  0  0  0
  -17.1890  -14.6340  -38.1070 C   0  0  0  0  0  0  0  0  0  0  0  0
  -18.6870  -14.2670  -38.2870 C   0  0  0  0  0  0  0  0  0  0  0  0
  -19.3810  -13.7380  -37.0580 N   0  0  0  0  0  0  0  0  0  0  0  0
  -20.7470  -13.9290  -36.9670 C   0  0  0  0  0  0  0  0  0  0  0  0
  -21.3620  -14.5270  -37.8510 O   0  0  0  0  0  0  0  0  0  0  0  0
  -21.5280  -13.4560  -35.8870 C   0  0  0  0  0  0  0  0  0  0  0  0
  -22.5420  -14.2640  -35.3220 C   0  0  0  0  0  0  0  0  0  0  0  0
  -23.3320  -13.7580  -34.2620 C   0  0  0  0  0  0  0  0  0  0  0  0
  -24.3320  -14.4810  -33.5950 O   0  0  0  0  0  0  0  0  0  0  0  0
  -25.4000  -15.0370  -34.3090 C   0  0  0  0  0  0  0  0  0  0  0  0
  -21.3320  -12.1570  -35.3870 C   0  0  0  0  0  0  0  0  0  0  0  0
  -22.0770  -11.6580  -34.3250 C   0  0  0  0  0  0  0  0  0  0  0  0
  -23.0580  -12.4600  -33.7650 C   0  0  0  0  0  0  0  0  0  0  0  0
  -23.8310  -12.0550  -32.7650 N   0  0  0  0  0  0  0  0  0  0  0  0
  -23.3570  -11.4380  -31.6920 C   0  0  0  0  0  0  0  0  0  0  0  0
  -20.2960  -10.1830  -30.5790 N   0  0  0  0  0  0  0  0  0  0  0  0
  -19.2980  -11.1270  -31.1840 C   0  0  0  0  0  0  0  0  0  0  0  0
  -19.8690   -8.9650  -30.2680 C   0  0  0  0  0  0  0  0  0  0  0  0
  -19.0900   -8.4390  -31.2920 C   0  0  0  0  0  0  0  0  0  0  0  0
  -18.5740   -7.1780  -31.1660 C   0  0  0  0  0  0  0  0  0  0  0  0
  -18.8670   -6.4680  -30.0090 C   0  0  0  0  0  0  0  0  0  0  0  0
  -19.6780   -6.9710  -28.9960 C   0  0  0  0  0  0  0  0  0  0  0  0
  -20.1920   -8.2530  -29.1220 C   0  0  0  0  0  0  0  0  0  0  0  0
  -21.0410   -8.6490  -28.0660 C   0  0  0  0  0  0  0  0  0  0  0  0
  -20.9170   -8.1650  -26.9270 O   0  0  0  0  0  0  0  0  0  0  0  0
  -22.1270   -9.4560  -28.2480 N   0  0  0  0  0  0  0  0  0  0  0  0
  -22.9300   -9.7240  -26.9600 C   0  0  0  0  0  0  0  0  0  0  0  0
  -24.5098  -10.1985  -28.7749 H   0  0  0  0  0  0  0  0  0  0  0  0
  -14.7364  -14.1805  -38.0061 H   0  0  0  0  0  0  0  0  0  0  0  0
  -13.6736  -14.2446  -36.5593 H   0  0  0  0  0  0  0  0  0  0  0  0
  -12.5886  -16.1725  -37.2666 H   0  0  0  0  0  0  0  0  0  0  0  0
  -12.9948  -15.4508  -38.8606 H   0  0  0  0  0  0  0  0  0  0  0  0
  -15.0272  -16.8015  -38.7689 H   0  0  0  0  0  0  0  0  0  0  0  0
  -14.0760  -18.8811  -39.4242 H   0  0  0  0  0  0  0  0  0  0  0  0
  -12.5224  -18.3272  -38.7127 H   0  0  0  0  0  0  0  0  0  0  0  0
  -13.2175  -17.4699  -40.1300 H   0  0  0  0  0  0  0  0  0  0  0  0
  -13.6938  -18.1823  -36.5542 H   0  0  0  0  0  0  0  0  0  0  0  0
  -15.2457  -18.6489  -37.3290 H   0  0  0  0  0  0  0  0  0  0  0  0
  -14.8803  -16.9539  -35.0875 H   0  0  0  0  0  0  0  0  0  0  0  0
  -16.3999  -17.2483  -35.9990 H   0  0  0  0  0  0  0  0  0  0  0  0
  -15.2075  -15.0201  -35.5438 H   0  0  0  0  0  0  0  0  0  0  0  0
  -17.4952  -15.6688  -36.2595 H   0  0  0  0  0  0  0  0  0  0  0  0
  -16.3576  -12.8418  -36.0087 H   0  0  0  0  0  0  0  0  0  0  0  0
  -17.0242  -13.8763  -34.7002 H   0  0  0  0  0  0  0  0  0  0  0  0
  -18.4146  -11.9712  -36.3549 H   0  0  0  0  0  0  0  0  0  0  0  0
  -19.0870  -13.0288  -35.0679 H   0  0  0  0  0  0  0  0  0  0  0  0
  -16.9773  -15.5464  -38.6838 H   0  0  0  0  0  0  0  0  0  0  0  0
  -16.5743  -13.8066  -38.4910 H   0  0  0  0  0  0  0  0  0  0  0  0
  -19.2202  -15.1721  -38.6133 H   0  0  0  0  0  0  0  0  0  0  0  0
  -18.7552  -13.4985  -39.0711 H   0  0  0  0  0  0  0  0  0  0  0  0
  -22.7134  -15.2658  -35.6988 H   0  0  0  0  0  0  0  0  0  0  0  0
  -26.0727  -15.5607  -33.6138 H   0  0  0  0  0  0  0  0  0  0  0  0
  -25.0129  -15.7501  -35.0517 H   0  0  0  0  0  0  0  0  0  0  0  0
  -25.9538  -14.2372  -34.8224 H   0  0  0  0  0  0  0  0  0  0  0  0
  -20.5778  -11.5259  -35.8430 H   0  0  0  0  0  0  0  0  0  0  0  0
  -21.8939  -10.6605  -33.9423 H   0  0  0  0  0  0  0  0  0  0  0  0
  -24.8446  -12.2279  -32.8255 H   0  0  0  0  0  0  0  0  0  0  0  0
  -19.7842  -12.0920  -31.3899 H   0  0  0  0  0  0  0  0  0  0  0  0
  -18.4646  -11.2787  -30.4823 H   0  0  0  0  0  0  0  0  0  0  0  0
  -18.9140  -10.7022  -32.1232 H   0  0  0  0  0  0  0  0  0  0  0  0
  -18.8928   -9.0233  -32.1835 H   0  0  0  0  0  0  0  0  0  0  0  0
  -17.9558   -6.7467  -31.9450 H   0  0  0  0  0  0  0  0  0  0  0  0
  -18.4448   -5.4768  -29.8894 H   0  0  0  0  0  0  0  0  0  0  0  0
  -19.9043   -6.3704  -28.1224 H   0  0  0  0  0  0  0  0  0  0  0  0
  -23.7838  -10.3785  -27.1897 H   0  0  0  0  0  0  0  0  0  0  0  0
  -23.2979   -8.7709  -26.5523 H   0  0  0  0  0  0  0  0  0  0  0  0
  -22.2815  -10.2140  -26.2188 H   0  0  0  0  0  0  0  0  0  0  0  0
  1  2  2  0  0  0  0
  1 31  1  0  0  0  0
  2 41  1  0  0  0  0
  3  2  1  0  0  0  0
  3 43  1  0  0  0  0
  4  3  2  0  0  0  0
  5  1  1  0  0  0  0
  6  7  1  0  0  0  0
  6 44  1  0  0  0  0
  6 45  1  0  0  0  0
  7  8  1  0  0  0  0
  7 46  1  0  0  0  0
  7 47  1  0  0  0  0
  8  9  1  0  0  0  0
  8 48  1  6  0  0  0
  9 49  1  0  0  0  0
  9 50  1  0  0  0  0
  9 51  1  0  0  0  0
 10  8  1  0  0  0  0
 10 52  1  0  0  0  0
 10 53  1  0  0  0  0
 11 10  1  0  0  0  0
 11 54  1  0  0  0  0
 11 55  1  0  0  0  0
 12  6  1  0  0  0  0
 12 11  1  0  0  0  0
 12 56  1  1  0  0  0
 13 12  1  0  0  0  0
 13 57  1  0  0  0  0
 14 13  1  0  0  0  0
 14 58  1  0  0  0  0
 14 59  1  0  0  0  0
 15 14  1  0  0  0  0
 15 60  1  0  0  0  0
 15 61  1  0  0  0  0
 16 13  1  0  0  0  0
 16 62  1  0  0  0  0
 16 63  1  0  0  0  0
 17 16  1  0  0  0  0
 17 64  1  0  0  0  0
 17 65  1  0  0  0  0
 18 15  1  0  0  0  0
 18 17  1  0  0  0  0
 19 18  1  0  0  0  0
 19 20  2  0  0  0  0
 21 19  1  0  0  0  0
 22 21  2  0  0  0  0
 22 66  1  0  0  0  0
 23 22  1  0  0  0  0
 23 24  1  0  0  0  0
 24 25  1  0  0  0  0
 25 67  1  0  0  0  0
 25 68  1  0  0  0  0
 25 69  1  0  0  0  0
 26 21  1  0  0  0  0
 26 70  1  0  0  0  0
 27 26  2  0  0  0  0
 27 71  1  0  0  0  0
 28 23  2  0  0  0  0
 28 27  1  0  0  0  0
 29 28  1  0  0  0  0
 29 30  1  0  0  0  0
 29 72  1  0  0  0  0
 30  4  1  0  0  0  0
 30  5  2  0  0  0  0
 31 32  1  0  0  0  0
 31 33  1  0  0  0  0
 32 73  1  0  0  0  0
 32 74  1  0  0  0  0
 32 75  1  0  0  0  0
 33 34  2  0  0  0  0
 33 38  1  0  0  0  0
 34 35  1  0  0  0  0
 34 76  1  0  0  0  0
 35 36  2  0  0  0  0
 35 77  1  0  0  0  0
 36 37  1  0  0  0  0
 36 78  1  0  0  0  0
 37 38  2  0  0  0  0
 37 79  1  0  0  0  0
 38 39  1  0  0  0  0
 39 40  2  0  0  0  0
 39 41  1  0  0  0  0
 41 42  1  0  0  0  0
 42 80  1  0  0  0  0
 42 81  1  0  0  0  0
 42 82  1  0  0  0  0
M  CHG  2   8   1  12   1
M  END
