4z1n_ligand
 OpenBabel08222323353D

 38 40  0  0  0  0  0  0  0  0999 V2000
   18.5740   11.1000   11.7420 C   0  0  0  0  0  0  0  0  0  0  0  0
   18.5120    9.9230   12.5390 C   0  0  0  0  0  0  0  0  0  0  0  0
   16.3670    7.1990   13.0940 C   0  0  0  0  0  0  0  0  0  0  0  0
   16.1070    6.0690   14.0470 C   0  0  0  0  0  0  0  0  0  0  0  0
   17.8510    8.6960   11.9280 C   0  0  0  0  0  0  0  0  0  0  0  0
   18.6470    7.5870   13.9690 C   0  0  0  0  0  0  0  0  0  0  0  0
   18.9260    8.8080   14.7730 C   0  0  0  0  0  0  0  0  0  0  0  0
   19.0140    9.9700   13.8670 C   0  0  0  0  0  0  0  0  0  0  0  0
   15.3980    7.5540   12.3990 O   0  0  0  0  0  0  0  0  0  0  0  0
   16.9450    4.9320   14.0610 C   0  0  0  0  0  0  0  0  0  0  0  0
   16.6330    3.8940   14.9580 C   0  0  0  0  0  0  0  0  0  0  0  0
   15.0180    6.1240   14.8460 C   0  0  0  0  0  0  0  0  0  0  0  0
   14.7290    5.0480   15.6640 C   0  0  0  0  0  0  0  0  0  0  0  0
   15.5280    3.8900   15.7750 C   0  0  0  0  0  0  0  0  0  0  0  0
   15.0830    2.6420   16.8430 S   0  0  0  0  0  0  0  0  0  0  0  0
   15.6860    1.3190   16.1990 N   0  0  0  0  0  0  0  0  0  0  0  0
   13.6290    2.6370   16.7800 O   0  0  0  0  0  0  0  0  0  0  0  0
   15.6500    2.9070   18.1280 O   0  0  0  0  0  0  0  0  0  0  0  0
   17.5750    7.7600   13.0070 N   0  0  0  0  0  0  0  0  0  0  0  0
   19.6120   11.1400   14.3920 C   0  0  0  0  0  0  0  0  0  0  0  0
   19.6930   12.2770   13.5800 C   0  0  0  0  0  0  0  0  0  0  0  0
   19.1760   12.2650   12.2710 C   0  0  0  0  0  0  0  0  0  0  0  0
   18.1636   11.1036   10.7387 H   0  0  0  0  0  0  0  0  0  0  0  0
   18.5265    8.2329   11.1937 H   0  0  0  0  0  0  0  0  0  0  0  0
   16.9122    8.9838   11.4322 H   0  0  0  0  0  0  0  0  0  0  0  0
   18.3705    6.7735   14.6558 H   0  0  0  0  0  0  0  0  0  0  0  0
   19.5623    7.3120   13.4245 H   0  0  0  0  0  0  0  0  0  0  0  0
   19.8781    8.6863   15.3102 H   0  0  0  0  0  0  0  0  0  0  0  0
   18.1137    8.9661   15.4977 H   0  0  0  0  0  0  0  0  0  0  0  0
   17.8020    4.8614   13.4010 H   0  0  0  0  0  0  0  0  0  0  0  0
   17.3055    3.0453   15.0077 H   0  0  0  0  0  0  0  0  0  0  0  0
   14.3799    7.0003   14.8452 H   0  0  0  0  0  0  0  0  0  0  0  0
   13.8260    5.0970   16.2617 H   0  0  0  0  0  0  0  0  0  0  0  0
   15.5540    0.4373   16.6521 H   0  0  0  0  0  0  0  0  0  0  0  0
   16.1972    1.3687   15.3410 H   0  0  0  0  0  0  0  0  0  0  0  0
   20.0001   11.1554   15.4040 H   0  0  0  0  0  0  0  0  0  0  0  0
   20.1593   13.1773   13.9637 H   0  0  0  0  0  0  0  0  0  0  0  0
   19.2400   13.1591   11.6614 H   0  0  0  0  0  0  0  0  0  0  0  0
  1 22  1  0  0  0  0
  1 23  1  0  0  0  0
  2  1  2  0  0  0  0
  2  8  1  0  0  0  0
  3  4  1  0  0  0  0
  3  9  2  0  0  0  0
  4 10  2  0  0  0  0
  4 12  1  0  0  0  0
  5  2  1  0  0  0  0
  5 24  1  0  0  0  0
  5 25  1  0  0  0  0
  6  7  1  0  0  0  0
  6 19  1  0  0  0  0
  6 26  1  0  0  0  0
  6 27  1  0  0  0  0
  7  8  1  0  0  0  0
  7 28  1  0  0  0  0
  7 29  1  0  0  0  0
  8 20  2  0  0  0  0
 10 11  1  0  0  0  0
 10 30  1  0  0  0  0
 11 14  2  0  0  0  0
 11 31  1  0  0  0  0
 12 13  2  0  0  0  0
 12 32  1  0  0  0  0
 13 14  1  0  0  0  0
 13 33  1  0  0  0  0
 14 15  1  0  0  0  0
 15 16  1  0  0  0  0
 15 17  2  0  0  0  0
 15 18  2  0  0  0  0
 16 34  1  0  0  0  0
 16 35  1  0  0  0  0
 19  3  1  0  0  0  0
 19  5  1  0  0  0  0
 20 21  1  0  0  0  0
 20 36  1  0  0  0  0
 21 22  2  0  0  0  0
 21 37  1  0  0  0  0
 22 38  1  0  0  0  0
M  END
