4z1q_ligand
 OpenBabel08222323353D

 51 55  0  0  1  0  0  0  0  0999 V2000
  -19.5400  -63.2340  136.5830 C   0  0  0  0  0  0  0  0  0  0  0  0
  -20.3370  -64.0030  135.7350 C   0  0  0  0  0  0  0  0  0  0  0  0
  -21.7130  -64.0300  135.9400 C   0  0  0  0  0  0  0  0  0  0  0  0
  -22.4110  -64.7710  135.0900 N   0  0  0  0  0  0  0  0  0  0  0  0
  -22.2850  -63.3710  136.9810 N   0  0  0  0  0  0  0  0  0  0  0  0
  -21.4900  -62.5980  137.8820 C   0  0  0  0  0  0  0  0  0  0  0  0
  -20.0990  -62.5360  137.6820 C   0  0  0  0  0  0  0  0  0  0  0  0
  -19.2250  -61.8060  138.5210 C   0  0  0  0  0  0  0  0  0  0  0  0
  -17.9490  -61.4750  138.0270 C   0  0  0  0  0  0  0  0  0  0  0  0
  -17.0350  -60.7560  138.8310 C   0  0  0  0  0  0  0  0  0  0  0  0
  -19.5820  -61.4650  139.8280 C   0  0  0  0  0  0  0  0  0  0  0  0
  -18.6790  -60.7350  140.6480 C   0  0  0  0  0  0  0  0  0  0  0  0
  -17.3950  -60.3740  140.1380 C   0  0  0  0  0  0  0  0  0  0  0  0
  -16.4980  -59.7140  140.9320 N   0  0  0  0  0  0  0  0  0  0  0  0
  -16.5500  -58.6700  141.7070 C   0  0  0  0  0  0  0  0  0  0  0  0
  -17.8700  -57.9790  141.9030 C   0  0  0  0  0  0  0  0  0  0  0  0
  -15.3400  -58.4140  142.2860 N   0  0  0  0  0  0  0  0  0  0  0  0
  -14.5680  -59.2760  141.8150 N   0  0  0  0  0  0  0  0  0  0  0  0
  -15.1990  -60.0670  140.9900 C   0  0  0  0  0  0  0  0  0  0  0  0
  -14.6290  -61.1870  140.2620 C   0  0  2  0  0  0  0  0  0  0  0  0
  -13.2330  -61.5890  140.8310 C   0  0  0  0  0  0  0  0  0  0  0  0
  -14.5140  -60.8710  138.8040 C   0  0  0  0  0  0  0  0  0  0  0  0
  -15.8100  -60.4160  138.2590 N   0  0  0  0  0  0  0  0  0  0  0  0
  -15.7690  -59.7870  137.0540 C   0  0  0  0  0  0  0  0  0  0  0  0
  -16.8920  -59.1030  136.5170 C   0  0  0  0  0  0  0  0  0  0  0  0
  -16.8090  -58.4580  135.2890 C   0  0  0  0  0  0  0  0  0  0  0  0
  -15.6360  -58.4740  134.5330 C   0  0  0  0  0  0  0  0  0  0  0  0
  -15.5700  -57.6740  132.9830 Cl  0  0  0  0  0  0  0  0  0  0  0  0
  -14.5510  -59.1910  135.0180 C   0  0  0  0  0  0  0  0  0  0  0  0
  -14.5830  -59.8300  136.2540 C   0  0  0  0  0  0  0  0  0  0  0  0
  -18.4739  -63.1692  136.3979 H   0  0  0  0  0  0  0  0  0  0  0  0
  -19.8905  -64.5718  134.9274 H   0  0  0  0  0  0  0  0  0  0  0  0
  -23.4347  -64.8359  135.1837 H   0  0  0  0  0  0  0  0  0  0  0  0
  -21.9294  -65.2816  134.3361 H   0  0  0  0  0  0  0  0  0  0  0  0
  -21.9516  -62.0675  138.7070 H   0  0  0  0  0  0  0  0  0  0  0  0
  -17.6655  -61.7732  137.0241 H   0  0  0  0  0  0  0  0  0  0  0  0
  -20.5502  -61.7579  140.2178 H   0  0  0  0  0  0  0  0  0  0  0  0
  -18.9637  -60.4538  141.6554 H   0  0  0  0  0  0  0  0  0  0  0  0
  -17.7386  -57.1231  142.5813 H   0  0  0  0  0  0  0  0  0  0  0  0
  -18.5922  -58.6849  142.3391 H   0  0  0  0  0  0  0  0  0  0  0  0
  -18.2454  -57.6232  140.9322 H   0  0  0  0  0  0  0  0  0  0  0  0
  -15.3061  -62.0463  140.3766 H   0  0  0  0  0  0  0  0  0  0  0  0
  -12.8336  -62.4378  140.2566 H   0  0  0  0  0  0  0  0  0  0  0  0
  -13.3368  -61.8776  141.8874 H   0  0  0  0  0  0  0  0  0  0  0  0
  -12.5443  -60.7351  140.7502 H   0  0  0  0  0  0  0  0  0  0  0  0
  -14.1934  -61.7741  138.2640 H   0  0  0  0  0  0  0  0  0  0  0  0
  -13.7663  -60.0762  138.6657 H   0  0  0  0  0  0  0  0  0  0  0  0
  -17.8236  -59.0839  137.0709 H   0  0  0  0  0  0  0  0  0  0  0  0
  -17.6761  -57.9298  134.9092 H   0  0  0  0  0  0  0  0  0  0  0  0
  -13.6518  -59.2552  134.4161 H   0  0  0  0  0  0  0  0  0  0  0  0
  -13.7082  -60.3611  136.6114 H   0  0  0  0  0  0  0  0  0  0  0  0
  1  2  2  0  0  0  0
  1  7  1  0  0  0  0
  1 31  1  0  0  0  0
  2  3  1  0  0  0  0
  2 32  1  0  0  0  0
  3  4  1  0  0  0  0
  3  5  2  0  0  0  0
  4 33  1  0  0  0  0
  4 34  1  0  0  0  0
  5  6  1  0  0  0  0
  6  7  2  0  0  0  0
  6 35  1  0  0  0  0
  7  8  1  0  0  0  0
  8  9  2  0  0  0  0
  8 11  1  0  0  0  0
  9 10  1  0  0  0  0
  9 36  1  0  0  0  0
 10 13  2  0  0  0  0
 10 23  1  0  0  0  0
 11 12  2  0  0  0  0
 11 37  1  0  0  0  0
 12 13  1  0  0  0  0
 12 38  1  0  0  0  0
 13 14  1  0  0  0  0
 14 15  1  0  0  0  0
 14 19  1  0  0  0  0
 15 16  1  0  0  0  0
 15 17  2  0  0  0  0
 16 39  1  0  0  0  0
 16 40  1  0  0  0  0
 16 41  1  0  0  0  0
 17 18  1  0  0  0  0
 18 19  2  0  0  0  0
 19 20  1  0  0  0  0
 20 21  1  0  0  0  0
 20 22  1  0  0  0  0
 20 42  1  1  0  0  0
 21 43  1  0  0  0  0
 21 44  1  0  0  0  0
 21 45  1  0  0  0  0
 22 23  1  0  0  0  0
 22 46  1  0  0  0  0
 22 47  1  0  0  0  0
 23 24  1  0  0  0  0
 24 25  2  0  0  0  0
 24 30  1  0  0  0  0
 25 26  1  0  0  0  0
 25 48  1  0  0  0  0
 26 27  2  0  0  0  0
 26 49  1  0  0  0  0
 27 28  1  0  0  0  0
 27 29  1  0  0  0  0
 29 30  2  0  0  0  0
 29 50  1  0  0  0  0
 30 51  1  0  0  0  0
M  END
