4z1s_ligand
 OpenBabel08222323353D

 51 55  0  0  1  0  0  0  0  0999 V2000
  -27.9340  -61.1300  135.9780 C   0  0  0  0  0  0  0  0  0  0  0  0
  -28.7770  -61.8680  135.1870 C   0  0  0  0  0  0  0  0  0  0  0  0
  -30.1380  -61.8270  135.4140 C   0  0  0  0  0  0  0  0  0  0  0  0
  -30.8910  -62.5340  134.6020 N   0  0  0  0  0  0  0  0  0  0  0  0
  -30.6570  -61.0970  136.3990 N   0  0  0  0  0  0  0  0  0  0  0  0
  -29.8190  -60.3090  137.2470 C   0  0  0  0  0  0  0  0  0  0  0  0
  -28.4190  -60.3090  137.0210 C   0  0  0  0  0  0  0  0  0  0  0  0
  -27.5060  -59.5300  137.8970 C   0  0  0  0  0  0  0  0  0  0  0  0
  -26.3160  -59.0860  137.3350 C   0  0  0  0  0  0  0  0  0  0  0  0
  -25.4220  -58.2940  138.0780 C   0  0  0  0  0  0  0  0  0  0  0  0
  -27.8580  -59.2120  139.1710 C   0  0  0  0  0  0  0  0  0  0  0  0
  -26.9980  -58.4240  139.9500 C   0  0  0  0  0  0  0  0  0  0  0  0
  -25.7730  -57.9730  139.4110 C   0  0  0  0  0  0  0  0  0  0  0  0
  -24.9040  -57.2220  140.2290 N   0  0  0  0  0  0  0  0  0  0  0  0
  -25.0940  -56.2340  141.0950 C   0  0  0  0  0  0  0  0  0  0  0  0
  -26.4400  -55.6190  141.3520 C   0  0  0  0  0  0  0  0  0  0  0  0
  -23.9790  -55.8550  141.6070 N   0  0  0  0  0  0  0  0  0  0  0  0
  -22.9310  -56.7100  141.0880 N   0  0  0  0  0  0  0  0  0  0  0  0
  -23.5450  -57.5330  140.2390 C   0  0  0  0  0  0  0  0  0  0  0  0
  -22.7670  -58.5580  139.5300 C   0  0  1  0  0  0  0  0  0  0  0  0
  -23.2530  -59.9130  139.9970 C   0  0  0  0  0  0  0  0  0  0  0  0
  -22.8840  -58.3620  138.0340 C   0  0  0  0  0  0  0  0  0  0  0  0
  -24.2040  -57.8800  137.5000 N   0  0  0  0  0  0  0  0  0  0  0  0
  -24.2140  -57.3650  136.2350 C   0  0  0  0  0  0  0  0  0  0  0  0
  -25.3160  -56.6980  135.7340 C   0  0  0  0  0  0  0  0  0  0  0  0
  -25.3670  -56.0710  134.5090 C   0  0  0  0  0  0  0  0  0  0  0  0
  -24.2560  -56.0920  133.7170 C   0  0  0  0  0  0  0  0  0  0  0  0
  -24.1800  -55.3490  132.1790 Cl  0  0  0  0  0  0  0  0  0  0  0  0
  -23.1010  -56.8180  134.1760 C   0  0  0  0  0  0  0  0  0  0  0  0
  -23.0420  -57.4190  135.4120 C   0  0  0  0  0  0  0  0  0  0  0  0
  -26.8661  -61.1778  135.7982 H   0  0  0  0  0  0  0  0  0  0  0  0
  -28.3765  -62.4806  134.3874 H   0  0  0  0  0  0  0  0  0  0  0  0
  -31.9138  -62.5413  134.7236 H   0  0  0  0  0  0  0  0  0  0  0  0
  -30.4585  -63.0809  133.8439 H   0  0  0  0  0  0  0  0  0  0  0  0
  -30.2468  -59.7204  138.0505 H   0  0  0  0  0  0  0  0  0  0  0  0
  -26.0736  -59.3527  136.3127 H   0  0  0  0  0  0  0  0  0  0  0  0
  -28.7969  -59.5650  139.5820 H   0  0  0  0  0  0  0  0  0  0  0  0
  -27.2734  -58.1614  140.9650 H   0  0  0  0  0  0  0  0  0  0  0  0
  -26.3420  -54.8243  142.1062 H   0  0  0  0  0  0  0  0  0  0  0  0
  -27.1315  -56.3910  141.7206 H   0  0  0  0  0  0  0  0  0  0  0  0
  -26.8322  -55.1913  140.4175 H   0  0  0  0  0  0  0  0  0  0  0  0
  -21.7063  -58.4563  139.8031 H   0  0  0  0  0  0  0  0  0  0  0  0
  -22.6870  -60.7031  139.4818 H   0  0  0  0  0  0  0  0  0  0  0  0
  -24.3232  -60.0184  139.7657 H   0  0  0  0  0  0  0  0  0  0  0  0
  -23.1019  -60.0025  141.0829 H   0  0  0  0  0  0  0  0  0  0  0  0
  -22.6686  -59.3294  137.5567 H   0  0  0  0  0  0  0  0  0  0  0  0
  -22.1203  -57.6283  137.7367 H   0  0  0  0  0  0  0  0  0  0  0  0
  -26.2065  -56.6661  136.3513 H   0  0  0  0  0  0  0  0  0  0  0  0
  -26.2711  -55.5711  134.1807 H   0  0  0  0  0  0  0  0  0  0  0  0
  -22.2414  -56.8944  133.5200 H   0  0  0  0  0  0  0  0  0  0  0  0
  -22.1405  -57.9161  135.7516 H   0  0  0  0  0  0  0  0  0  0  0  0
  1  2  2  0  0  0  0
  1  7  1  0  0  0  0
  1 31  1  0  0  0  0
  2  3  1  0  0  0  0
  2 32  1  0  0  0  0
  3  4  1  0  0  0  0
  3  5  2  0  0  0  0
  4 33  1  0  0  0  0
  4 34  1  0  0  0  0
  5  6  1  0  0  0  0
  6  7  2  0  0  0  0
  6 35  1  0  0  0  0
  7  8  1  0  0  0  0
  8  9  2  0  0  0  0
  8 11  1  0  0  0  0
  9 10  1  0  0  0  0
  9 36  1  0  0  0  0
 10 13  2  0  0  0  0
 10 23  1  0  0  0  0
 11 12  2  0  0  0  0
 11 37  1  0  0  0  0
 12 13  1  0  0  0  0
 12 38  1  0  0  0  0
 13 14  1  0  0  0  0
 14 15  1  0  0  0  0
 14 19  1  0  0  0  0
 15 16  1  0  0  0  0
 15 17  2  0  0  0  0
 16 39  1  0  0  0  0
 16 40  1  0  0  0  0
 16 41  1  0  0  0  0
 17 18  1  0  0  0  0
 18 19  2  0  0  0  0
 19 20  1  0  0  0  0
 20 21  1  0  0  0  0
 20 22  1  0  0  0  0
 20 42  1  1  0  0  0
 21 43  1  0  0  0  0
 21 44  1  0  0  0  0
 21 45  1  0  0  0  0
 22 23  1  0  0  0  0
 22 46  1  0  0  0  0
 22 47  1  0  0  0  0
 23 24  1  0  0  0  0
 24 25  2  0  0  0  0
 24 30  1  0  0  0  0
 25 26  1  0  0  0  0
 25 48  1  0  0  0  0
 26 27  2  0  0  0  0
 26 49  1  0  0  0  0
 27 28  1  0  0  0  0
 27 29  1  0  0  0  0
 29 30  2  0  0  0  0
 29 50  1  0  0  0  0
 30 51  1  0  0  0  0
M  END
