4z2g_ligand
 OpenBabel08222323353D

112113  0  0  1  0  0  0  0  0999 V2000
  -20.7580    3.5640  -31.5190 N   0  0  0  0  0  0  0  0  0  0  0  0
  -24.3480    5.4910  -33.3780 C   0  0  1  0  0  0  0  0  0  0  0  0
  -18.6840   -1.8170  -29.8880 N   0  0  0  0  0  0  0  0  0  0  0  0
  -25.1990    3.1490  -32.6670 C   0  0  2  0  0  0  0  0  0  0  0  0
  -24.9270    1.6450  -32.9280 C   0  0  2  0  0  0  0  0  0  0  0  0
  -25.9070    1.0500  -33.9480 C   0  0  1  0  0  0  0  0  0  0  0  0
  -20.5400   -6.2790  -30.9110 C   0  0  0  0  0  0  0  0  0  0  0  0
  -20.9570   -5.0910  -30.1890 N   0  0  0  0  0  0  0  0  0  0  0  0
  -20.0430   -4.1390  -30.0380 C   0  0  0  0  0  0  0  0  0  0  0  0
  -18.9040   -4.2680  -30.5790 O   0  0  0  0  0  0  0  0  0  0  0  0
  -20.4640   -3.0950  -29.3120 N   0  0  0  0  0  0  0  0  0  0  0  0
  -19.7920   -1.9590  -29.2610 C   0  0  1  0  0  3  0  0  0  0  0  0
  -20.2830   -0.9500  -28.5390 N   0  0  0  0  0  0  0  0  0  0  0  0
  -19.0070    2.2950  -30.3420 C   0  0  0  0  0  0  0  0  0  0  0  0
  -19.4640    2.8880  -31.6910 C   0  0  0  0  0  0  0  0  0  0  0  0
  -21.6950    3.5870  -32.4550 C   0  0  0  0  0  0  0  0  0  0  0  0
  -21.4890    3.2500  -33.5900 O   0  0  0  0  0  0  0  0  0  0  0  0
  -23.0310    3.8980  -32.0500 O   0  0  0  0  0  0  0  0  0  0  0  0
  -24.0040    3.9930  -33.0950 C   0  0  2  0  0  0  0  0  0  0  0  0
  -25.6130    3.5310  -31.2420 C   0  0  0  0  0  0  0  0  0  0  0  0
  -23.2570    6.0940  -34.2690 C   0  0  0  0  0  0  0  0  0  0  0  0
  -25.6900    5.7250  -34.0430 C   0  0  0  0  0  0  0  0  0  0  0  0
  -25.7810    5.7310  -35.2370 O   0  0  0  0  0  0  0  0  0  0  0  0
  -26.9090    5.9080  -33.2700 O   0  0  0  0  0  0  0  0  0  0  0  0
  -28.0610    6.4430  -33.9310 C   0  0  2  0  0  0  0  0  0  0  0  0
  -28.3490    7.8470  -33.3830 C   0  0  0  0  0  0  0  0  0  0  0  0
  -27.2010    8.7810  -33.7270 C   0  0  0  0  0  0  0  0  0  0  0  0
  -29.2320    5.4990  -33.6910 C   0  0  2  0  0  0  0  0  0  0  0  0
  -30.4310    6.1090  -34.1430 O   0  0  0  0  0  0  0  0  0  0  0  0
  -29.5030    5.3190  -32.1930 C   0  0  0  0  0  0  0  0  0  0  0  0
  -28.8380    4.2170  -34.5110 C   0  0  1  0  0  0  0  0  0  0  0  0
  -29.4730    2.8870  -34.0840 C   0  0  1  0  0  0  0  0  0  0  0  0
  -30.9870    2.9130  -33.9180 C   0  0  0  0  0  0  0  0  0  0  0  0
  -28.9890    4.3580  -35.9330 O   0  0  0  0  0  0  0  0  0  0  0  0
  -28.3260    3.3720  -36.7380 C   0  0  0  0  0  0  0  0  0  0  0  0
  -27.0400    3.9070  -37.3520 C   0  0  0  0  0  0  0  0  0  0  0  0
  -29.2780    3.0140  -37.8780 C   0  0  0  0  0  0  0  0  0  0  0  0
  -27.9990    2.1930  -35.9750 O   0  0  0  0  0  0  0  0  0  0  0  0
  -29.0060    1.7600  -35.0310 C   0  0  1  0  0  0  0  0  0  0  0  0
  -28.4590    0.5220  -34.2630 C   0  0  2  0  0  0  0  0  0  0  0  0
  -29.5990   -0.1860  -33.5050 C   0  0  0  0  0  0  0  0  0  0  0  0
  -27.2820    0.8310  -33.3050 C   0  0  0  0  0  0  0  0  0  0  0  0
  -25.9780    1.9130  -35.0910 O   0  0  0  0  0  0  0  0  0  0  0  0
  -25.3340   -0.2830  -34.4040 C   0  0  0  0  0  0  0  0  0  0  0  0
  -24.9870    0.8470  -31.7200 O   0  0  0  0  0  0  0  0  0  0  0  0
  -23.7550    0.8960  -31.0250 C   0  0  0  0  0  0  0  0  0  0  0  0
  -22.8430   -0.0540  -31.6160 C   0  0  0  0  0  0  0  0  0  0  0  0
  -22.0350   -0.8840  -32.1250 C   0  0  0  0  0  0  0  0  0  0  0  0
  -19.4050    0.8350  -30.1110 C   0  0  0  0  0  0  0  0  0  0  0  0
  -19.6090    0.3670  -28.6260 C   0  0  0  0  0  0  0  0  0  0  0  0
  -20.9398    4.0294  -30.6528 H   0  0  0  0  0  0  0  0  0  0  0  0
  -24.3546    6.0195  -32.4133 H   0  0  0  0  0  0  0  0  0  0  0  0
  -18.3043   -2.5954  -30.4455 H   0  0  0  0  0  0  0  0  0  0  0  0
  -18.1728   -0.9244  -29.8346 H   0  0  0  0  0  0  0  0  0  0  0  0
  -26.0439    3.4220  -33.3162 H   0  0  0  0  0  0  0  0  0  0  0  0
  -23.9105    1.5630  -33.3404 H   0  0  0  0  0  0  0  0  0  0  0  0
  -21.3800   -6.9869  -30.9684 H   0  0  0  0  0  0  0  0  0  0  0  0
  -19.6977   -6.7514  -30.3843 H   0  0  0  0  0  0  0  0  0  0  0  0
  -20.2263   -5.9991  -31.9275 H   0  0  0  0  0  0  0  0  0  0  0  0
  -21.8832   -4.9943  -29.8246 H   0  0  0  0  0  0  0  0  0  0  0  0
  -21.3141   -3.1783  -28.7921 H   0  0  0  0  0  0  0  0  0  0  0  0
  -21.1084   -1.0829  -27.9373 H   0  0  0  0  0  0  0  0  0  0  0  0
  -19.4471    2.9006  -29.5360 H   0  0  0  0  0  0  0  0  0  0  0  0
  -17.9101    2.3617  -30.2936 H   0  0  0  0  0  0  0  0  0  0  0  0
  -18.7161    3.6132  -32.0443 H   0  0  0  0  0  0  0  0  0  0  0  0
  -19.5685    2.0796  -32.4297 H   0  0  0  0  0  0  0  0  0  0  0  0
  -23.5875    3.5634  -34.0180 H   0  0  0  0  0  0  0  0  0  0  0  0
  -26.4753    2.9211  -30.9348 H   0  0  0  0  0  0  0  0  0  0  0  0
  -25.8880    4.5957  -31.2130 H   0  0  0  0  0  0  0  0  0  0  0  0
  -24.7729    3.3504  -30.5552 H   0  0  0  0  0  0  0  0  0  0  0  0
  -23.4919    7.1491  -34.4730 H   0  0  0  0  0  0  0  0  0  0  0  0
  -23.2098    5.5389  -35.2175 H   0  0  0  0  0  0  0  0  0  0  0  0
  -22.2862    6.0270  -33.7562 H   0  0  0  0  0  0  0  0  0  0  0  0
  -27.8685    6.5126  -35.0118 H   0  0  0  0  0  0  0  0  0  0  0  0
  -28.4628    7.7959  -32.2901 H   0  0  0  0  0  0  0  0  0  0  0  0
  -29.2778    8.2301  -33.8309 H   0  0  0  0  0  0  0  0  0  0  0  0
  -27.4141    9.7850  -33.3314 H   0  0  0  0  0  0  0  0  0  0  0  0
  -27.0864    8.8342  -34.8197 H   0  0  0  0  0  0  0  0  0  0  0  0
  -26.2714    8.4000  -33.2789 H   0  0  0  0  0  0  0  0  0  0  0  0
  -30.3593    6.2960  -35.0716 H   0  0  0  0  0  0  0  0  0  0  0  0
  -30.3520    4.6336  -32.0538 H   0  0  0  0  0  0  0  0  0  0  0  0
  -29.7416    6.2943  -31.7437 H   0  0  0  0  0  0  0  0  0  0  0  0
  -28.6099    4.8999  -31.7065 H   0  0  0  0  0  0  0  0  0  0  0  0
  -27.7595    4.0982  -34.3299 H   0  0  0  0  0  0  0  0  0  0  0  0
  -29.0666    2.6564  -33.0882 H   0  0  0  0  0  0  0  0  0  0  0  0
  -31.3395    1.9169  -33.6123 H   0  0  0  0  0  0  0  0  0  0  0  0
  -31.4560    3.1905  -34.8735 H   0  0  0  0  0  0  0  0  0  0  0  0
  -31.2589    3.6503  -33.1483 H   0  0  0  0  0  0  0  0  0  0  0  0
  -27.2625    4.8090  -37.9409 H   0  0  0  0  0  0  0  0  0  0  0  0
  -26.6000    3.1407  -38.0071 H   0  0  0  0  0  0  0  0  0  0  0  0
  -26.3283    4.1579  -36.5517 H   0  0  0  0  0  0  0  0  0  0  0  0
  -28.8085    2.2573  -38.5238 H   0  0  0  0  0  0  0  0  0  0  0  0
  -29.4975    3.9153  -38.4692 H   0  0  0  0  0  0  0  0  0  0  0  0
  -30.2134    2.6116  -37.4619 H   0  0  0  0  0  0  0  0  0  0  0  0
  -29.8874    1.4382  -35.6050 H   0  0  0  0  0  0  0  0  0  0  0  0
  -28.0772   -0.1789  -35.0199 H   0  0  0  0  0  0  0  0  0  0  0  0
  -29.1964   -1.0576  -32.9681 H   0  0  0  0  0  0  0  0  0  0  0  0
  -30.3647   -0.5183  -34.2214 H   0  0  0  0  0  0  0  0  0  0  0  0
  -30.0494    0.5125  -32.7844 H   0  0  0  0  0  0  0  0  0  0  0  0
  -27.5378    1.7438  -32.7471 H   0  0  0  0  0  0  0  0  0  0  0  0
  -27.1918   -0.0131  -32.6055 H   0  0  0  0  0  0  0  0  0  0  0  0
  -26.5520    1.5274  -35.7423 H   0  0  0  0  0  0  0  0  0  0  0  0
  -24.3483   -0.1202  -34.8642 H   0  0  0  0  0  0  0  0  0  0  0  0
  -26.0112   -0.7407  -35.1402 H   0  0  0  0  0  0  0  0  0  0  0  0
  -25.2280   -0.9523  -33.5375 H   0  0  0  0  0  0  0  0  0  0  0  0
  -23.9180    0.6416  -29.9673 H   0  0  0  0  0  0  0  0  0  0  0  0
  -23.3308    1.9083  -31.0975 H   0  0  0  0  0  0  0  0  0  0  0  0
  -21.3606   -1.5767  -32.5498 H   0  0  0  0  0  0  0  0  0  0  0  0
  -18.6174    0.2050  -30.5500 H   0  0  0  0  0  0  0  0  0  0  0  0
  -20.3518    0.6630  -30.6439 H   0  0  0  0  0  0  0  0  0  0  0  0
  -18.6250    0.2936  -28.1399 H   0  0  0  0  0  0  0  0  0  0  0  0
  -20.2226    1.1138  -28.1009 H   0  0  0  0  0  0  0  0  0  0  0  0
  1 16  1  0  0  0  0
  1 51  1  0  0  0  0
  2 21  1  0  0  0  0
  2 22  1  0  0  0  0
  2 52  1  1  0  0  0
  3 53  1  0  0  0  0
  3 54  1  0  0  0  0
  4  5  1  0  0  0  0
  4 20  1  0  0  0  0
  4 55  1  6  0  0  0
  5  6  1  0  0  0  0
  5 45  1  0  0  0  0
  5 56  1  6  0  0  0
  6 42  1  0  0  0  0
  6 43  1  6  0  0  0
  6 44  1  0  0  0  0
  7 57  1  0  0  0  0
  7 58  1  0  0  0  0
  7 59  1  0  0  0  0
  8  7  1  0  0  0  0
  8 60  1  0  0  0  0
  9  8  1  0  0  0  0
  9 10  2  0  0  0  0
 11  9  1  0  0  0  0
 11 61  1  0  0  0  0
 12  3  1  1  0  0  0
 12 11  1  0  0  0  0
 13 12  1  0  0  0  0
 13 62  1  0  0  0  0
 14 15  1  0  0  0  0
 14 63  1  0  0  0  0
 14 64  1  0  0  0  0
 15  1  1  0  0  0  0
 15 65  1  0  0  0  0
 15 66  1  0  0  0  0
 16 17  2  0  0  0  0
 16 18  1  0  0  0  0
 18 19  1  0  0  0  0
 19  2  1  0  0  0  0
 19  4  1  0  0  0  0
 19 67  1  6  0  0  0
 20 68  1  0  0  0  0
 20 69  1  0  0  0  0
 20 70  1  0  0  0  0
 21 71  1  0  0  0  0
 21 72  1  0  0  0  0
 21 73  1  0  0  0  0
 22 23  2  0  0  0  0
 22 24  1  0  0  0  0
 24 25  1  0  0  0  0
 25 26  1  0  0  0  0
 25 28  1  0  0  0  0
 25 74  1  6  0  0  0
 26 27  1  0  0  0  0
 26 75  1  0  0  0  0
 26 76  1  0  0  0  0
 27 77  1  0  0  0  0
 27 78  1  0  0  0  0
 27 79  1  0  0  0  0
 28 29  1  6  0  0  0
 28 30  1  0  0  0  0
 28 31  1  0  0  0  0
 29 80  1  0  0  0  0
 30 81  1  0  0  0  0
 30 82  1  0  0  0  0
 30 83  1  0  0  0  0
 31 32  1  0  0  0  0
 31 34  1  0  0  0  0
 31 84  1  1  0  0  0
 32 33  1  0  0  0  0
 32 85  1  1  0  0  0
 33 86  1  0  0  0  0
 33 87  1  0  0  0  0
 33 88  1  0  0  0  0
 34 35  1  0  0  0  0
 35 36  1  0  0  0  0
 35 37  1  0  0  0  0
 36 89  1  0  0  0  0
 36 90  1  0  0  0  0
 36 91  1  0  0  0  0
 37 92  1  0  0  0  0
 37 93  1  0  0  0  0
 37 94  1  0  0  0  0
 38 35  1  0  0  0  0
 39 32  1  0  0  0  0
 39 38  1  0  0  0  0
 39 95  1  6  0  0  0
 40 39  1  0  0  0  0
 40 41  1  0  0  0  0
 40 96  1  6  0  0  0
 41 97  1  0  0  0  0
 41 98  1  0  0  0  0
 41 99  1  0  0  0  0
 42 40  1  0  0  0  0
 42100  1  0  0  0  0
 42101  1  0  0  0  0
 43102  1  0  0  0  0
 44103  1  0  0  0  0
 44104  1  0  0  0  0
 44105  1  0  0  0  0
 45 46  1  0  0  0  0
 46 47  1  0  0  0  0
 46106  1  0  0  0  0
 46107  1  0  0  0  0
 47 48  3  0  0  0  0
 48108  1  0  0  0  0
 49 14  1  0  0  0  0
 49 50  1  0  0  0  0
 49109  1  0  0  0  0
 49110  1  0  0  0  0
 50 13  1  0  0  0  0
 50111  1  0  0  0  0
 50112  1  0  0  0  0
M  END
