4z2h_ligand
 OpenBabel08222323353D

106107  0  0  1  0  0  0  0  0999 V2000
  -20.4980   -7.2570  -31.0630 C   0  0  0  0  0  0  0  0  0  0  0  0
  -21.0580   -6.1490  -30.3330 N   0  0  0  0  0  0  0  0  0  0  0  0
  -20.4210   -4.9820  -30.2190 C   0  0  0  0  0  0  0  0  0  0  0  0
  -19.3470   -4.7690  -30.8130 O   0  0  0  0  0  0  0  0  0  0  0  0
  -21.0290   -4.1290  -29.3680 N   0  0  0  0  0  0  0  0  0  0  0  0
  -20.6440   -2.8550  -29.1670 C   0  0  1  0  0  3  0  0  0  0  0  0
  -21.1480   -2.2520  -28.1800 N   0  0  0  0  0  0  0  0  0  0  0  0
  -19.6680   -2.2970  -29.9120 N   0  0  0  0  0  0  0  0  0  0  0  0
  -18.9220   -1.1090  -29.5430 C   0  0  0  0  0  0  0  0  0  0  0  0
  -19.0550    0.0150  -30.5770 C   0  0  0  0  0  0  0  0  0  0  0  0
  -20.3940    0.5700  -30.4700 N   0  0  0  0  0  0  0  0  0  0  0  0
  -21.1780    0.8960  -31.4860 C   0  0  0  0  0  0  0  0  0  0  0  0
  -20.9040    0.8830  -32.6890 O   0  0  0  0  0  0  0  0  0  0  0  0
  -22.5050    1.2500  -31.0340 O   0  0  0  0  0  0  0  0  0  0  0  0
  -23.2740    1.9860  -31.9970 C   0  0  1  0  0  0  0  0  0  0  0  0
  -24.6080    1.2890  -32.2480 C   0  0  2  0  0  0  0  0  0  0  0  0
  -25.3730    1.0970  -30.9340 C   0  0  0  0  0  0  0  0  0  0  0  0
  -23.4750    3.4200  -31.4380 C   0  0  1  0  0  0  0  0  0  0  0  0
  -22.1890    4.2330  -31.3950 C   0  0  0  0  0  0  0  0  0  0  0  0
  -24.4400    4.1920  -32.2690 C   0  0  0  0  0  0  0  0  0  0  0  0
  -24.1630    4.4790  -33.4180 O   0  0  0  0  0  0  0  0  0  0  0  0
  -25.7150    4.5090  -31.6500 O   0  0  0  0  0  0  0  0  0  0  0  0
  -26.6530    5.2940  -32.3900 C   0  0  2  0  0  0  0  0  0  0  0  0
  -26.8270    6.6520  -31.6970 C   0  0  0  0  0  0  0  0  0  0  0  0
  -25.5770    7.1900  -31.0260 C   0  0  0  0  0  0  0  0  0  0  0  0
  -27.9790    4.5100  -32.4950 C   0  0  2  0  0  0  0  0  0  0  0  0
  -29.0480    5.3930  -32.8230 O   0  0  0  0  0  0  0  0  0  0  0  0
  -28.3270    3.8160  -31.1770 C   0  0  0  0  0  0  0  0  0  0  0  0
  -27.8450    3.5580  -33.6680 C   0  0  1  0  0  0  0  0  0  0  0  0
  -28.9010    2.4630  -33.8160 C   0  0  1  0  0  0  0  0  0  0  0  0
  -30.3540    2.9540  -33.9130 C   0  0  0  0  0  0  0  0  0  0  0  0
  -27.7910    4.3790  -34.8340 O   0  0  0  0  0  0  0  0  0  0  0  0
  -27.5510    3.6530  -36.0520 C   0  0  0  0  0  0  0  0  0  0  0  0
  -26.1820    4.0560  -36.6260 C   0  0  0  0  0  0  0  0  0  0  0  0
  -28.6270    4.0080  -37.0930 C   0  0  0  0  0  0  0  0  0  0  0  0
  -27.4850    2.2210  -35.7820 O   0  0  0  0  0  0  0  0  0  0  0  0
  -28.5440    1.6430  -35.0560 C   0  0  1  0  0  0  0  0  0  0  0  0
  -28.1100    0.2120  -34.7710 C   0  0  2  0  0  0  0  0  0  0  0  0
  -29.3680   -0.5860  -34.4410 C   0  0  0  0  0  0  0  0  0  0  0  0
  -26.9950    0.0840  -33.6950 C   0  0  0  0  0  0  0  0  0  0  0  0
  -25.5270   -0.0290  -34.2080 C   0  0  2  0  0  0  0  0  0  0  0  0
  -25.1640    1.0630  -35.0710 O   0  0  0  0  0  0  0  0  0  0  0  0
  -25.3730   -1.3240  -34.9680 C   0  0  0  0  0  0  0  0  0  0  0  0
  -24.5030   -0.0160  -33.0560 C   0  0  2  0  0  0  0  0  0  0  0  0
  -24.7060   -1.1830  -32.2300 O   0  0  0  0  0  0  0  0  0  0  0  0
  -23.4720   -1.6380  -31.6970 C   0  0  0  0  0  0  0  0  0  0  0  0
  -23.5400   -3.0320  -31.2660 C   0  0  0  0  0  0  0  0  0  0  0  0
  -23.6070   -4.2440  -30.8650 C   0  0  0  0  0  0  0  0  0  0  0  0
  -21.1918   -8.1097  -31.0244 H   0  0  0  0  0  0  0  0  0  0  0  0
  -19.5372   -7.5454  -30.6117 H   0  0  0  0  0  0  0  0  0  0  0  0
  -20.3373   -6.9623  -32.1105 H   0  0  0  0  0  0  0  0  0  0  0  0
  -21.9519   -6.2576  -29.8981 H   0  0  0  0  0  0  0  0  0  0  0  0
  -21.8173   -4.4656  -28.8530 H   0  0  0  0  0  0  0  0  0  0  0  0
  -20.8852   -1.2756  -27.9840 H   0  0  0  0  0  0  0  0  0  0  0  0
  -21.8223   -2.7362  -27.5702 H   0  0  0  0  0  0  0  0  0  0  0  0
  -19.4353   -2.7474  -30.8086 H   0  0  0  0  0  0  0  0  0  0  0  0
  -17.8592   -1.3758  -29.4474 H   0  0  0  0  0  0  0  0  0  0  0  0
  -19.2969   -0.7438  -28.5755 H   0  0  0  0  0  0  0  0  0  0  0  0
  -18.8981   -0.3881  -31.5884 H   0  0  0  0  0  0  0  0  0  0  0  0
  -18.3095    0.7981  -30.3746 H   0  0  0  0  0  0  0  0  0  0  0  0
  -20.7545    0.7185  -29.5491 H   0  0  0  0  0  0  0  0  0  0  0  0
  -22.7201    2.0410  -32.9457 H   0  0  0  0  0  0  0  0  0  0  0  0
  -25.2047    1.9784  -32.8634 H   0  0  0  0  0  0  0  0  0  0  0  0
  -26.3299    0.5938  -31.1370 H   0  0  0  0  0  0  0  0  0  0  0  0
  -25.5648    2.0779  -30.4747 H   0  0  0  0  0  0  0  0  0  0  0  0
  -24.7735    0.4814  -30.2472 H   0  0  0  0  0  0  0  0  0  0  0  0
  -23.8707    3.3306  -30.4155 H   0  0  0  0  0  0  0  0  0  0  0  0
  -22.4013    5.2338  -30.9908 H   0  0  0  0  0  0  0  0  0  0  0  0
  -21.7807    4.3274  -32.4120 H   0  0  0  0  0  0  0  0  0  0  0  0
  -21.4557    3.7255  -30.7511 H   0  0  0  0  0  0  0  0  0  0  0  0
  -26.2644    5.4656  -33.4047 H   0  0  0  0  0  0  0  0  0  0  0  0
  -27.6085    6.5469  -30.9301 H   0  0  0  0  0  0  0  0  0  0  0  0
  -27.1508    7.3827  -32.4528 H   0  0  0  0  0  0  0  0  0  0  0  0
  -25.8001    8.1612  -30.5601 H   0  0  0  0  0  0  0  0  0  0  0  0
  -24.7835    7.3174  -31.7771 H   0  0  0  0  0  0  0  0  0  0  0  0
  -25.2412    6.4816  -30.2543 H   0  0  0  0  0  0  0  0  0  0  0  0
  -28.8670    5.8118  -33.6562 H   0  0  0  0  0  0  0  0  0  0  0  0
  -29.2748    3.2692  -31.2896 H   0  0  0  0  0  0  0  0  0  0  0  0
  -28.4305    4.5693  -30.3821 H   0  0  0  0  0  0  0  0  0  0  0  0
  -27.5260    3.1104  -30.9115 H   0  0  0  0  0  0  0  0  0  0  0  0
  -26.8799    3.0415  -33.5590 H   0  0  0  0  0  0  0  0  0  0  0  0
  -28.8352    1.8136  -32.9306 H   0  0  0  0  0  0  0  0  0  0  0  0
  -31.0269    2.0899  -34.0162 H   0  0  0  0  0  0  0  0  0  0  0  0
  -30.4618    3.6094  -34.7898 H   0  0  0  0  0  0  0  0  0  0  0  0
  -30.6134    3.5140  -33.0025 H   0  0  0  0  0  0  0  0  0  0  0  0
  -26.1802    5.1334  -36.8476 H   0  0  0  0  0  0  0  0  0  0  0  0
  -25.9913    3.4912  -37.5505 H   0  0  0  0  0  0  0  0  0  0  0  0
  -25.3955    3.8317  -35.8904 H   0  0  0  0  0  0  0  0  0  0  0  0
  -28.4373    3.4494  -38.0215 H   0  0  0  0  0  0  0  0  0  0  0  0
  -28.5937    5.0876  -37.3013 H   0  0  0  0  0  0  0  0  0  0  0  0
  -29.6192    3.7407  -36.7006 H   0  0  0  0  0  0  0  0  0  0  0  0
  -29.4398    1.6130  -35.6937 H   0  0  0  0  0  0  0  0  0  0  0  0
  -27.6895   -0.1975  -35.7013 H   0  0  0  0  0  0  0  0  0  0  0  0
  -29.0946   -1.6300  -34.2281 H   0  0  0  0  0  0  0  0  0  0  0  0
  -30.0573   -0.5549  -35.2977 H   0  0  0  0  0  0  0  0  0  0  0  0
  -29.8590   -0.1485  -33.5592 H   0  0  0  0  0  0  0  0  0  0  0  0
  -27.2091   -0.8164  -33.1005 H   0  0  0  0  0  0  0  0  0  0  0  0
  -27.0534    0.9724  -33.0490 H   0  0  0  0  0  0  0  0  0  0  0  0
  -25.7400    1.0731  -35.8264 H   0  0  0  0  0  0  0  0  0  0  0  0
  -24.3397   -1.4134  -35.3345 H   0  0  0  0  0  0  0  0  0  0  0  0
  -26.0668   -1.3330  -35.8215 H   0  0  0  0  0  0  0  0  0  0  0  0
  -25.6001   -2.1694  -34.3019 H   0  0  0  0  0  0  0  0  0  0  0  0
  -23.4918   -0.0688  -33.4858 H   0  0  0  0  0  0  0  0  0  0  0  0
  -23.2068   -1.0120  -30.8322 H   0  0  0  0  0  0  0  0  0  0  0  0
  -22.6953   -1.5434  -32.4701 H   0  0  0  0  0  0  0  0  0  0  0  0
  -23.6623   -5.2452  -30.5338 H   0  0  0  0  0  0  0  0  0  0  0  0
  1  2  1  0  0  0  0
  1 49  1  0  0  0  0
  1 50  1  0  0  0  0
  1 51  1  0  0  0  0
  2  3  1  0  0  0  0
  2 52  1  0  0  0  0
  3  4  2  0  0  0  0
  3  5  1  0  0  0  0
  5 53  1  0  0  0  0
  6  5  1  1  0  0  0
  6  7  1  0  0  0  0
  6  8  1  0  0  0  0
  7 54  1  0  0  0  0
  7 55  1  0  0  0  0
  8  9  1  0  0  0  0
  8 56  1  0  0  0  0
  9 10  1  0  0  0  0
  9 57  1  0  0  0  0
  9 58  1  0  0  0  0
 10 11  1  0  0  0  0
 10 59  1  0  0  0  0
 10 60  1  0  0  0  0
 11 12  1  0  0  0  0
 11 61  1  0  0  0  0
 12 13  2  0  0  0  0
 12 14  1  0  0  0  0
 14 15  1  0  0  0  0
 15 16  1  0  0  0  0
 15 18  1  0  0  0  0
 15 62  1  6  0  0  0
 16 17  1  0  0  0  0
 16 44  1  0  0  0  0
 16 63  1  6  0  0  0
 17 64  1  0  0  0  0
 17 65  1  0  0  0  0
 17 66  1  0  0  0  0
 18 19  1  0  0  0  0
 18 20  1  0  0  0  0
 18 67  1  1  0  0  0
 19 68  1  0  0  0  0
 19 69  1  0  0  0  0
 19 70  1  0  0  0  0
 20 21  2  0  0  0  0
 20 22  1  0  0  0  0
 22 23  1  0  0  0  0
 23 24  1  0  0  0  0
 23 26  1  0  0  0  0
 23 71  1  6  0  0  0
 24 25  1  0  0  0  0
 24 72  1  0  0  0  0
 24 73  1  0  0  0  0
 25 74  1  0  0  0  0
 25 75  1  0  0  0  0
 25 76  1  0  0  0  0
 26 27  1  6  0  0  0
 26 28  1  0  0  0  0
 26 29  1  0  0  0  0
 27 77  1  0  0  0  0
 28 78  1  0  0  0  0
 28 79  1  0  0  0  0
 28 80  1  0  0  0  0
 29 30  1  0  0  0  0
 29 32  1  0  0  0  0
 29 81  1  1  0  0  0
 30 31  1  0  0  0  0
 30 37  1  0  0  0  0
 30 82  1  1  0  0  0
 31 83  1  0  0  0  0
 31 84  1  0  0  0  0
 31 85  1  0  0  0  0
 32 33  1  0  0  0  0
 33 34  1  0  0  0  0
 33 35  1  0  0  0  0
 33 36  1  0  0  0  0
 34 86  1  0  0  0  0
 34 87  1  0  0  0  0
 34 88  1  0  0  0  0
 35 89  1  0  0  0  0
 35 90  1  0  0  0  0
 35 91  1  0  0  0  0
 36 37  1  0  0  0  0
 37 38  1  0  0  0  0
 37 92  1  6  0  0  0
 38 39  1  0  0  0  0
 38 40  1  0  0  0  0
 38 93  1  6  0  0  0
 39 94  1  0  0  0  0
 39 95  1  0  0  0  0
 39 96  1  0  0  0  0
 40 41  1  0  0  0  0
 40 97  1  0  0  0  0
 40 98  1  0  0  0  0
 41 42  1  6  0  0  0
 41 43  1  0  0  0  0
 41 44  1  0  0  0  0
 42 99  1  0  0  0  0
 43100  1  0  0  0  0
 43101  1  0  0  0  0
 43102  1  0  0  0  0
 44 45  1  0  0  0  0
 44103  1  6  0  0  0
 45 46  1  0  0  0  0
 46 47  1  0  0  0  0
 46104  1  0  0  0  0
 46105  1  0  0  0  0
 47 48  3  0  0  0  0
 48106  1  0  0  0  0
M  END
