4z3v_ligand
 OpenBabel08222323353D

 38 41  0  0  0  0  0  0  0  0999 V2000
  -20.6460   -9.9340    4.1900 C   0  0  0  0  0  0  0  0  0  0  0  0
  -21.7070   -9.1600    4.9520 C   0  0  0  0  0  0  0  0  0  0  0  0
  -21.8620   -9.4400    6.2850 C   0  0  0  0  0  0  0  0  0  0  0  0
  -22.8410   -8.7330    7.0180 C   0  0  0  0  0  0  0  0  0  0  0  0
  -23.2550   -8.7610    8.3790 C   0  0  0  0  0  0  0  0  0  0  0  0
  -24.2160   -7.8890    8.5370 N   0  0  0  0  0  0  0  0  0  0  0  0
  -24.4980   -7.2470    7.3310 N   0  0  0  0  0  0  0  0  0  0  0  0
  -23.6460   -7.7590    6.3750 C   0  0  0  0  0  0  0  0  0  0  0  0
  -23.4820   -7.4890    5.0200 C   0  0  0  0  0  0  0  0  0  0  0  0
  -22.5140   -8.1820    4.3060 C   0  0  0  0  0  0  0  0  0  0  0  0
  -22.3560   -7.8660    2.8570 C   0  0  0  0  0  0  0  0  0  0  0  0
  -23.2700   -8.3180    1.9080 C   0  0  0  0  0  0  0  0  0  0  0  0
  -23.1070   -8.0250    0.5590 C   0  0  0  0  0  0  0  0  0  0  0  0
  -22.0530   -7.2700    0.0980 C   0  0  0  0  0  0  0  0  0  0  0  0
  -21.1000   -6.8080    1.0270 C   0  0  0  0  0  0  0  0  0  0  0  0
  -19.9700   -6.0370    0.6060 C   0  0  0  0  0  0  0  0  0  0  0  0
  -19.7680   -5.7300   -0.7270 N   0  0  0  0  0  0  0  0  0  0  0  0
  -19.0790   -5.6450    1.6210 C   0  0  0  0  0  0  0  0  0  0  0  0
  -19.3080   -5.9820    2.9000 N   0  0  0  0  0  0  0  0  0  0  0  0
  -20.3360   -6.6590    3.2830 N   0  0  0  0  0  0  0  0  0  0  0  0
  -21.2470   -7.0990    2.4060 C   0  0  0  0  0  0  0  0  0  0  0  0
  -17.8430   -4.8890    1.3470 C   0  0  0  0  0  0  0  0  0  0  0  0
  -16.9070   -4.8410    2.3240 N   0  0  0  0  0  0  0  0  0  0  0  0
  -17.6450   -4.3560    0.2610 O   0  0  0  0  0  0  0  0  0  0  0  0
  -20.1416  -10.6338    4.8726 H   0  0  0  0  0  0  0  0  0  0  0  0
  -19.9084   -9.2322    3.7736 H   0  0  0  0  0  0  0  0  0  0  0  0
  -21.1193  -10.4968    3.3719 H   0  0  0  0  0  0  0  0  0  0  0  0
  -21.2451  -10.1896    6.7673 H   0  0  0  0  0  0  0  0  0  0  0  0
  -22.8413   -9.4006    9.1573 H   0  0  0  0  0  0  0  0  0  0  0  0
  -25.2136   -6.5214    7.1815 H   0  0  0  0  0  0  0  0  0  0  0  0
  -24.1016   -6.7476    4.5286 H   0  0  0  0  0  0  0  0  0  0  0  0
  -24.1220   -8.9077    2.2266 H   0  0  0  0  0  0  0  0  0  0  0  0
  -23.8328   -8.4030   -0.1519 H   0  0  0  0  0  0  0  0  0  0  0  0
  -21.9581   -7.0360   -0.9562 H   0  0  0  0  0  0  0  0  0  0  0  0
  -20.4488   -6.0389   -1.4355 H   0  0  0  0  0  0  0  0  0  0  0  0
  -18.9367   -5.1924   -1.0114 H   0  0  0  0  0  0  0  0  0  0  0  0
  -16.0553   -4.3382    2.1762 H   0  0  0  0  0  0  0  0  0  0  0  0
  -17.0673   -5.3083    3.1934 H   0  0  0  0  0  0  0  0  0  0  0  0
  1  2  1  0  0  0  0
  1 25  1  0  0  0  0
  1 26  1  0  0  0  0
  1 27  1  0  0  0  0
  2  3  2  0  0  0  0
  2 10  1  0  0  0  0
  3  4  1  0  0  0  0
  3 28  1  0  0  0  0
  4  5  1  0  0  0  0
  4  8  2  0  0  0  0
  5  6  2  0  0  0  0
  5 29  1  0  0  0  0
  6  7  1  0  0  0  0
  7  8  1  0  0  0  0
  7 30  1  0  0  0  0
  8  9  1  0  0  0  0
  9 10  2  0  0  0  0
  9 31  1  0  0  0  0
 10 11  1  0  0  0  0
 11 12  2  0  0  0  0
 11 21  1  0  0  0  0
 12 13  1  0  0  0  0
 12 32  1  0  0  0  0
 13 14  2  0  0  0  0
 13 33  1  0  0  0  0
 14 15  1  0  0  0  0
 14 34  1  0  0  0  0
 15 16  2  0  0  0  0
 15 21  1  0  0  0  0
 16 17  1  0  0  0  0
 16 18  1  0  0  0  0
 17 35  1  0  0  0  0
 17 36  1  0  0  0  0
 18 19  2  0  0  0  0
 18 22  1  0  0  0  0
 19 20  1  0  0  0  0
 20 21  2  0  0  0  0
 22 23  1  0  0  0  0
 22 24  2  0  0  0  0
 23 37  1  0  0  0  0
 23 38  1  0  0  0  0
M  END
