4z46_ligand
 OpenBabel08222323353D

 23 24  0  0  1  0  0  0  0  0999 V2000
  -35.1270  -10.5990  -22.1620 Pt  0  0  0  0  0  0  0  0  0  0  0  0
  -35.0450  -12.3900  -23.1640 N   0  3  0  0  0  0  0  0  0  0  0  0
  -36.5690  -11.5110  -21.0520 N   0  3  0  0  0  0  0  0  0  0  0  0
  -35.8450  -13.3850  -22.4230 C   0  0  1  0  0  0  0  0  0  0  0  0
  -37.0440  -12.6990  -21.8040 C   0  0  1  0  0  0  0  0  0  0  0  0
  -37.7810  -13.7020  -20.9130 C   0  0  0  0  0  0  0  0  0  0  0  0
  -38.2040  -14.9550  -21.6790 C   0  0  0  0  0  0  0  0  0  0  0  0
  -37.0560  -15.5540  -22.4740 C   0  0  0  0  0  0  0  0  0  0  0  0
  -36.3350  -14.5080  -23.3170 C   0  0  0  0  0  0  0  0  0  0  0  0
  -34.2452  -12.8429  -23.5780 H   0  0  0  0  0  0  0  0  0  0  0  0
  -35.6102  -11.9773  -23.8894 H   0  0  0  0  0  0  0  0  0  0  0  0
  -37.3565  -11.0418  -20.6327 H   0  0  0  0  0  0  0  0  0  0  0  0
  -35.9292  -11.8039  -20.3303 H   0  0  0  0  0  0  0  0  0  0  0  0
  -35.2202  -13.8151  -21.6264 H   0  0  0  0  0  0  0  0  0  0  0  0
  -37.7272  -12.3649  -22.5987 H   0  0  0  0  0  0  0  0  0  0  0  0
  -38.6795  -13.2177  -20.5029 H   0  0  0  0  0  0  0  0  0  0  0  0
  -37.1158  -13.9988  -20.0887 H   0  0  0  0  0  0  0  0  0  0  0  0
  -39.0153  -14.6896  -22.3728 H   0  0  0  0  0  0  0  0  0  0  0  0
  -38.5667  -15.7046  -20.9602 H   0  0  0  0  0  0  0  0  0  0  0  0
  -37.4545  -16.3332  -23.1403 H   0  0  0  0  0  0  0  0  0  0  0  0
  -36.3361  -16.0031  -21.7740 H   0  0  0  0  0  0  0  0  0  0  0  0
  -35.4769  -14.9739  -23.8235 H   0  0  0  0  0  0  0  0  0  0  0  0
  -37.0282  -14.1020  -24.0684 H   0  0  0  0  0  0  0  0  0  0  0  0
  2 10  1  0  0  0  0
  2 11  1  0  0  0  0
  2  1  1  0  0  0  0
  3  1  1  0  0  0  0
  3 12  1  0  0  0  0
  3 13  1  0  0  0  0
  4  2  1  0  0  0  0
  4  5  1  0  0  0  0
  4 14  1  1  0  0  0
  5  3  1  0  0  0  0
  5  6  1  0  0  0  0
  5 15  1  6  0  0  0
  6  7  1  0  0  0  0
  6 16  1  0  0  0  0
  6 17  1  0  0  0  0
  7  8  1  0  0  0  0
  7 18  1  0  0  0  0
  7 19  1  0  0  0  0
  8  9  1  0  0  0  0
  8 20  1  0  0  0  0
  8 21  1  0  0  0  0
  9  4  1  0  0  0  0
  9 22  1  0  0  0  0
  9 23  1  0  0  0  0
M  CHG  2   2   1   3   1
M  HYD  2   2   0   3   0
M  ZBO  2   3   0   4   0
M  END
