4z7s_ligand
 OpenBabel08222323353D

 59 60  0  0  1  0  0  0  0  0999 V2000
   53.3540  103.3210   73.9400 C   0  0  0  0  0  0  0  0  0  0  0  0
   54.7440  113.2460   72.7570 C   0  0  0  0  0  0  0  0  0  0  0  0
   55.1470  112.4310   71.5570 C   0  0  2  0  0  0  0  0  0  0  0  0
   55.9920  114.3160   70.2360 C   0  0  0  0  0  0  0  0  0  0  0  0
   54.7200  110.1390   72.4020 C   0  0  0  0  0  0  0  0  0  0  0  0
   50.6520  103.5560   74.6050 C   0  0  0  0  0  0  0  0  0  0  0  0
   54.9590  113.2020   70.2750 C   0  0  0  0  0  0  0  0  0  0  0  0
   51.4040  104.7010   74.2910 C   0  0  0  0  0  0  0  0  0  0  0  0
   53.8560  108.8570   72.5010 C   0  0  0  0  0  0  0  0  0  0  0  0
   52.7550  104.5790   73.9560 C   0  0  0  0  0  0  0  0  0  0  0  0
   53.8250  112.0640   77.1310 C   0  0  0  0  0  0  0  0  0  0  0  0
   52.8040  111.2690   77.6280 C   0  0  0  0  0  0  0  0  0  0  0  0
   53.7310  112.5860   75.8450 C   0  0  0  0  0  0  0  0  0  0  0  0
   51.6920  110.9850   76.8430 C   0  0  0  0  0  0  0  0  0  0  0  0
   54.8180  113.4430   75.2490 C   0  0  1  0  0  0  0  0  0  0  0  0
   51.6020  111.4960   75.5600 C   0  0  0  0  0  0  0  0  0  0  0  0
   56.0210  113.5230   76.1490 C   0  0  0  0  0  0  0  0  0  0  0  0
   52.6250  112.2940   75.0620 C   0  0  0  0  0  0  0  0  0  0  0  0
   56.9250  112.6590   76.0600 O   0  5  0  0  0  0  0  0  0  0  0  0
   56.1200  114.4590   76.9910 O   0  0  0  0  0  0  0  0  0  0  0  0
   55.1710  112.7730   74.0420 N   0  0  0  0  0  0  0  0  0  0  0  0
   54.0700  114.2470   72.6420 O   0  0  0  0  0  0  0  0  0  0  0  0
   55.6220  115.5140   70.1290 O   0  5  0  0  0  0  0  0  0  0  0  0
   57.2170  114.0370   70.3110 O   0  0  0  0  0  0  0  0  0  0  0  0
   54.3150  111.2650   71.5930 N   0  0  0  0  0  0  0  0  0  0  0  0
   55.7580  110.1990   73.0240 O   0  0  0  0  0  0  0  0  0  0  0  0
   54.0840  108.2880   73.9120 C   0  0  0  0  0  0  0  0  0  0  0  0
   53.2780  107.1140   74.1990 N   0  0  0  0  0  0  0  0  0  0  0  0
   53.6080  105.8300   73.6170 C   0  0  0  0  0  0  0  0  0  0  0  0
   54.5550  105.7330   72.8710 O   0  0  0  0  0  0  0  0  0  0  0  0
   52.6010  102.1820   74.2460 C   0  0  0  0  0  0  0  0  0  0  0  0
   51.2470  102.3040   74.5800 C   0  0  0  0  0  0  0  0  0  0  0  0
   50.4410  101.0590   74.9140 C   0  0  0  0  0  3  0  0  0  0  0  0
   50.8520  100.2440   75.8520 N   0  0  0  0  0  0  0  0  0  0  0  0
   49.2420  100.7750   74.2050 N   0  0  0  0  0  0  0  0  0  0  0  0
   54.4044  103.2246   73.6902 H   0  0  0  0  0  0  0  0  0  0  0  0
   56.2043  112.1393   71.6410 H   0  0  0  0  0  0  0  0  0  0  0  0
   49.6046  103.6519   74.8673 H   0  0  0  0  0  0  0  0  0  0  0  0
   53.9468  113.6314   70.2435 H   0  0  0  0  0  0  0  0  0  0  0  0
   55.1003  112.5327   69.4136 H   0  0  0  0  0  0  0  0  0  0  0  0
   50.9360  105.6786   74.3087 H   0  0  0  0  0  0  0  0  0  0  0  0
   54.1703  108.1267   71.7409 H   0  0  0  0  0  0  0  0  0  0  0  0
   52.7934  109.1022   72.3567 H   0  0  0  0  0  0  0  0  0  0  0  0
   54.6940  112.2783   77.7426 H   0  0  0  0  0  0  0  0  0  0  0  0
   52.8727  110.8672   78.6324 H   0  0  0  0  0  0  0  0  0  0  0  0
   50.8956  110.3634   77.2359 H   0  0  0  0  0  0  0  0  0  0  0  0
   54.4432  114.4566   75.0437 H   0  0  0  0  0  0  0  0  0  0  0  0
   50.7367  111.2746   74.9457 H   0  0  0  0  0  0  0  0  0  0  0  0
   52.5577  112.6904   74.0553 H   0  0  0  0  0  0  0  0  0  0  0  0
   55.7336  111.9478   74.0924 H   0  0  0  0  0  0  0  0  0  0  0  0
   53.4661  111.2313   71.0656 H   0  0  0  0  0  0  0  0  0  0  0  0
   53.8367  109.0685   74.6466 H   0  0  0  0  0  0  0  0  0  0  0  0
   55.1450  108.0148   74.0103 H   0  0  0  0  0  0  0  0  0  0  0  0
   52.4866  107.1935   74.8051 H   0  0  0  0  0  0  0  0  0  0  0  0
   53.0669  101.2035   74.2244 H   0  0  0  0  0  0  0  0  0  0  0  0
   50.3052   99.4008   76.0775 H   0  0  0  0  0  0  0  0  0  0  0  0
   51.7223  100.4459   76.3647 H   0  0  0  0  0  0  0  0  0  0  0  0
   48.9166  101.4149   73.4664 H   0  0  0  0  0  0  0  0  0  0  0  0
   48.6987   99.9293   74.4299 H   0  0  0  0  0  0  0  0  0  0  0  0
  1 31  1  0  0  0  0
  1 36  1  0  0  0  0
  2 21  1  0  0  0  0
  2 22  2  0  0  0  0
  3  2  1  0  0  0  0
  3  7  1  0  0  0  0
  3 37  1  1  0  0  0
  4 23  1  0  0  0  0
  4 24  2  0  0  0  0
  5 25  1  0  0  0  0
  5 26  2  0  0  0  0
  6 32  1  0  0  0  0
  6 38  1  0  0  0  0
  7  4  1  0  0  0  0
  7 39  1  0  0  0  0
  7 40  1  0  0  0  0
  8  6  2  0  0  0  0
  8 41  1  0  0  0  0
  9  5  1  0  0  0  0
  9 42  1  0  0  0  0
  9 43  1  0  0  0  0
 10  1  2  0  0  0  0
 10  8  1  0  0  0  0
 11 12  2  0  0  0  0
 11 44  1  0  0  0  0
 12 14  1  0  0  0  0
 12 45  1  0  0  0  0
 13 11  1  0  0  0  0
 13 18  2  0  0  0  0
 14 46  1  0  0  0  0
 15 13  1  0  0  0  0
 15 17  1  0  0  0  0
 15 47  1  6  0  0  0
 16 14  2  0  0  0  0
 16 48  1  0  0  0  0
 17 19  1  0  0  0  0
 17 20  2  0  0  0  0
 18 16  1  0  0  0  0
 18 49  1  0  0  0  0
 21 15  1  0  0  0  0
 21 50  1  0  0  0  0
 25  3  1  0  0  0  0
 25 51  1  0  0  0  0
 27  9  1  0  0  0  0
 27 52  1  0  0  0  0
 27 53  1  0  0  0  0
 28 27  1  0  0  0  0
 28 29  1  0  0  0  0
 28 54  1  0  0  0  0
 29 10  1  0  0  0  0
 29 30  2  0  0  0  0
 31 32  2  0  0  0  0
 31 55  1  0  0  0  0
 32 33  1  0  0  0  0
 33 34  1  0  0  0  0
 33 35  1  0  0  0  0
 34 56  1  0  0  0  0
 34 57  1  0  0  0  0
 35 58  1  0  0  0  0
 35 59  1  0  0  0  0
M  CHG  2  19  -1  23  -1
M  END
