4z8a_ligand
 OpenBabel08222323353D

249252  0  0  1  0  0  0  0  0999 V2000
   22.1990   26.4110   28.8380 C   0  0  0  0  0  0  0  0  0  0  0  0
   21.3480   27.2660   28.6200 O   0  0  0  0  0  0  0  0  0  0  0  0
   23.2580   26.5890   29.8810 C   0  0  0  0  0  0  0  0  0  0  0  0
   22.3830   25.3620   28.0470 N   0  0  0  0  0  0  0  0  0  0  0  0
   21.4800   24.9800   26.9640 C   0  0  2  0  0  0  0  0  0  0  0  0
   20.7680   23.6740   27.3030 C   0  0  0  0  0  0  0  0  0  0  0  0
   21.4240   22.6630   27.5170 O   0  0  0  0  0  0  0  0  0  0  0  0
   22.2380   24.7880   25.6460 C   0  0  2  0  0  0  0  0  0  0  0  0
   23.0380   26.0470   25.2850 C   0  0  0  0  0  0  0  0  0  0  0  0
   21.2760   24.4020   24.5410 C   0  0  0  0  0  0  0  0  0  0  0  0
   23.8160   25.9030   23.9770 C   0  0  0  0  0  0  0  0  0  0  0  0
   19.4400   23.7000   27.3530 N   0  0  0  0  0  0  0  0  0  0  0  0
   18.6780   22.4880   27.6380 C   0  0  0  0  0  0  0  0  0  0  0  0
   18.1560   21.8440   26.3740 C   0  0  0  0  0  0  0  0  0  0  0  0
   18.2150   22.4440   25.2950 O   0  0  0  0  0  0  0  0  0  0  0  0
   17.6780   20.6030   26.5030 N   0  0  0  0  0  0  0  0  0  0  0  0
   17.0580   19.8920   25.3990 C   0  0  2  0  0  0  0  0  0  0  0  0
   15.5490   20.0480   25.4780 C   0  0  0  0  0  0  0  0  0  0  0  0
   14.9850   20.2000   26.5610 O   0  0  0  0  0  0  0  0  0  0  0  0
   17.4320   18.4090   25.4220 C   0  0  0  0  0  0  0  0  0  0  0  0
   18.9370   18.1810   25.1420 C   0  0  0  0  0  0  0  0  0  0  0  0
   19.3740   16.6920   25.3100 C   0  0  0  0  0  0  0  0  0  0  0  0
   18.3830   15.7570   24.7650 N   0  0  0  0  0  0  0  0  0  0  0  0
   18.2720   15.4440   23.4780 C   0  0  0  0  0  3  0  0  0  0  0  0
   19.1100   15.9760   22.5890 N   0  0  0  0  0  0  0  0  0  0  0  0
   17.3020   14.6290   23.0700 N   0  0  0  0  0  0  0  0  0  0  0  0
   14.9120   20.0090   24.3280 N   0  0  0  0  0  0  0  0  0  0  0  0
   13.4580   20.0350   24.2820 C   0  0  2  0  0  0  0  0  0  0  0  0
   12.9200   19.1860   23.1500 C   0  0  0  0  0  0  0  0  0  0  0  0
   13.6380   18.7820   22.2560 O   0  0  0  0  0  0  0  0  0  0  0  0
   12.9770   21.4850   24.1330 C   0  0  0  0  0  0  0  0  0  0  0  0
   13.2570   22.1020   22.7710 C   0  0  0  0  0  0  0  0  0  0  0  0
   12.7550   23.5410   22.7470 C   0  0  0  0  0  0  0  0  0  0  0  0
   13.0850   24.2870   21.5320 N   0  0  0  0  0  0  0  0  0  0  0  0
   12.2810   24.3950   20.4740 C   0  0  0  0  0  3  0  0  0  0  0  0
   11.1110   23.7610   20.4370 N   0  0  0  0  0  0  0  0  0  0  0  0
   12.6450   25.1350   19.4400 N   0  0  0  0  0  0  0  0  0  0  0  0
   11.6200   18.9130   23.1760 N   0  0  0  0  0  0  0  0  0  0  0  0
   11.0160   18.1720   22.0860 C   0  0  2  0  0  0  0  0  0  0  0  0
   10.9250   18.9850   20.8050 C   0  0  0  0  0  0  0  0  0  0  0  0
   10.7270   20.2010   20.8520 O   0  0  0  0  0  0  0  0  0  0  0  0
    9.6060   17.7210   22.4950 C   0  0  0  0  0  0  0  0  0  0  0  0
    9.5530   16.5420   23.4710 C   0  0  0  0  0  0  0  0  0  0  0  0
    8.1160   16.3270   23.9390 C   0  0  0  0  0  0  0  0  0  0  0  0
   10.1080   15.2700   22.8390 C   0  0  0  0  0  0  0  0  0  0  0  0
   11.0030   18.3180   19.6510 N   0  0  0  0  0  0  0  0  0  0  0  0
   10.6050   19.0230   18.4240 C   0  0  2  0  0  0  0  0  0  0  0  0
    9.1240   19.3460   18.4320 C   0  0  0  0  0  0  0  0  0  0  0  0
    8.3970   18.7660   19.2270 O   0  0  0  0  0  0  0  0  0  0  0  0
   10.9520   18.0300   17.3190 C   0  0  0  0  0  0  0  0  0  0  0  0
   10.9110   16.6960   17.9890 C   0  0  0  0  0  0  0  0  0  0  0  0
   11.2940   16.8900   19.4190 C   0  0  0  0  0  0  0  0  0  0  0  0
    8.6840   20.3050   17.6020 N   0  0  0  0  0  0  0  0  0  0  0  0
    7.2370   20.5230   17.4700 C   0  0  2  0  0  0  0  0  0  0  0  0
    6.5120   19.2480   17.0450 C   0  0  0  0  0  0  0  0  0  0  0  0
    7.0070   18.4670   16.2410 O   0  0  0  0  0  0  0  0  0  0  0  0
    7.1100   21.6100   16.3890 C   0  0  0  0  0  0  0  0  0  0  0  0
    8.4500   21.8370   15.8500 C   0  0  0  0  0  0  0  0  0  0  0  0
    9.4790   21.2030   16.7620 C   0  0  0  0  0  0  0  0  0  0  0  0
    5.3380   19.0490   17.6260 N   0  0  0  0  0  0  0  0  0  0  0  0
    4.5250   17.8680   17.3590 C   0  0  2  0  0  0  0  0  0  0  0  0
    3.9310   17.9590   15.9660 C   0  0  0  0  0  0  0  0  0  0  0  0
    3.3830   18.9990   15.5920 O   0  0  0  0  0  0  0  0  0  0  0  0
    3.4050   17.7490   18.3840 C   0  0  2  0  0  0  0  0  0  0  0  0
    3.9600   17.7530   19.7020 O   0  0  0  0  0  0  0  0  0  0  0  0
    2.5820   16.4780   18.1550 C   0  0  0  0  0  0  0  0  0  0  0  0
    4.0280   16.8770   15.1840 N   0  0  0  0  0  0  0  0  0  0  0  0
    3.3940   16.9100   13.8680 C   0  0  2  0  0  0  0  0  0  0  0  0
    1.8960   17.1520   14.0070 C   0  0  0  0  0  0  0  0  0  0  0  0
    1.2810   16.7270   14.9850 O   0  0  0  0  0  0  0  0  0  0  0  0
    3.6970   15.5210   13.2940 C   0  0  0  0  0  0  0  0  0  0  0  0
    4.9940   15.1530   13.9740 C   0  0  0  0  0  0  0  0  0  0  0  0
    4.7880   15.6280   15.3870 C   0  0  0  0  0  0  0  0  0  0  0  0
    1.3310   17.8730   13.0560 N   0  0  0  0  0  0  0  0  0  0  0  0
   -0.0960   18.2120   13.1380 C   0  0  2  0  0  0  0  0  0  0  0  0
   -0.9450   17.4750   12.0910 C   0  0  0  0  0  0  0  0  0  0  0  0
   -2.1840   17.4000   12.2240 O   0  0  0  0  0  0  0  0  0  0  0  0
   -0.2710   19.7240   12.9890 C   0  0  0  0  0  0  0  0  0  0  0  0
    0.0630   20.1200   11.6830 O   0  0  0  0  0  0  0  0  0  0  0  0
   -0.3020   16.9470   11.0510 N   0  0  0  0  0  0  0  0  0  0  0  0
   -1.0120   16.1770   10.0270 C   0  0  2  0  0  0  0  0  0  0  0  0
   -1.2740   14.7640   10.5210 C   0  0  0  0  0  0  0  0  0  0  0  0
   -0.4480   14.2220   11.2550 O   0  0  0  0  0  0  0  0  0  0  0  0
   -0.2000   16.0970    8.7270 C   0  0  0  0  0  0  0  0  0  0  0  0
    0.0820   17.4180    8.0380 C   0  0  0  0  0  0  0  0  0  0  0  0
    0.6710   17.1850    6.6510 C   0  0  0  0  0  0  0  0  0  0  0  0
    1.1840   18.4760    6.0230 C   0  0  0  0  0  0  0  0  0  0  0  0
    1.7160   18.2540    4.6420 N   0  3  0  0  0  0  0  0  0  0  0  0
   -2.3880   14.1470   10.0860 N   0  0  0  0  0  0  0  0  0  0  0  0
   -2.6240   12.7330   10.4210 C   0  0  2  0  0  0  0  0  0  0  0  0
   -1.4470   11.8480    9.9780 C   0  0  0  0  0  0  0  0  0  0  0  0
   -0.8180   12.0950    8.9450 O   0  0  0  0  0  0  0  0  0  0  0  0
   -3.8940   12.3920    9.6340 C   0  0  0  0  0  0  0  0  0  0  0  0
   -4.6080   13.7190    9.4780 C   0  0  0  0  0  0  0  0  0  0  0  0
   -3.5060   14.7210    9.3090 C   0  0  0  0  0  0  0  0  0  0  0  0
   -1.1580   10.8230   10.7640 N   0  0  0  0  0  0  0  0  0  0  0  0
   -0.0730    9.9060   10.4090 C   0  0  2  0  0  0  0  0  0  0  0  0
   -0.3380    9.1730    9.0960 C   0  0  0  0  0  0  0  0  0  0  0  0
   -1.4450    8.7020    8.8700 O   0  0  0  0  0  0  0  0  0  0  0  0
    0.1160    8.8820   11.5220 C   0  0  0  0  0  0  0  0  0  0  0  0
    1.0460    7.9030   11.1180 O   0  0  0  0  0  0  0  0  0  0  0  0
    0.6850    9.0130    8.2570 N   0  0  0  0  0  0  0  0  0  0  0  0
    0.4930    8.2780    7.0190 C   0  0  2  0  0  0  0  0  0  0  0  0
    0.4180    6.7630    7.2590 C   0  0  0  0  0  0  0  0  0  0  0  0
    0.1150    6.0040    6.3400 O   0  0  0  0  0  0  0  0  0  0  0  0
    1.6100    8.5720    6.0060 C   0  0  2  0  0  0  0  0  0  0  0  0
    2.8480    8.1060    6.5420 O   0  0  0  0  0  0  0  0  0  0  0  0
    1.7090   10.0650    5.7130 C   0  0  0  0  0  0  0  0  0  0  0  0
    0.6690    6.3250    8.4940 N   0  0  0  0  0  0  0  0  0  0  0  0
    0.5220    4.9080    8.8300 C   0  0  2  0  0  0  0  0  0  0  0  0
   -0.9280    4.4560    8.7340 C   0  0  0  0  0  0  0  0  0  0  0  0
   -1.2120    3.3260    8.3200 O   0  0  0  0  0  0  0  0  0  0  0  0
    1.0260    4.6300   10.2350 C   0  0  0  0  0  0  0  0  0  0  0  0
    1.0740    3.1370   10.6070 C   0  0  0  0  0  0  0  0  0  0  0  0
    2.0650    2.4020    9.7150 C   0  0  0  0  0  0  0  0  0  0  0  0
    1.4510    3.0220   12.0540 C   0  0  0  0  0  0  0  0  0  0  0  0
   -1.8370    5.3360    9.1440 N   0  0  0  0  0  0  0  0  0  0  0  0
   23.9066   25.7008   29.9002 H   0  0  0  0  0  0  0  0  0  0  0  0
   22.7849   26.7188   30.8655 H   0  0  0  0  0  0  0  0  0  0  0  0
   23.8607   27.4781   29.6437 H   0  0  0  0  0  0  0  0  0  0  0  0
   23.1926   24.7959   28.2022 H   0  0  0  0  0  0  0  0  0  0  0  0
   20.7322   25.7762   26.8338 H   0  0  0  0  0  0  0  0  0  0  0  0
   22.9518   23.9617   25.7790 H   0  0  0  0  0  0  0  0  0  0  0  0
   23.7511   26.2544   26.0964 H   0  0  0  0  0  0  0  0  0  0  0  0
   22.3391   26.8907   25.1865 H   0  0  0  0  0  0  0  0  0  0  0  0
   20.7227   23.4982   24.8358 H   0  0  0  0  0  0  0  0  0  0  0  0
   21.8393   24.2022   23.6176 H   0  0  0  0  0  0  0  0  0  0  0  0
   20.5675   25.2253   24.3674 H   0  0  0  0  0  0  0  0  0  0  0  0
   24.3664   26.8334   23.7735 H   0  0  0  0  0  0  0  0  0  0  0  0
   23.1147   25.7042   23.1532 H   0  0  0  0  0  0  0  0  0  0  0  0
   24.5267   25.0679   24.0631 H   0  0  0  0  0  0  0  0  0  0  0  0
   18.9568   24.5608   27.1933 H   0  0  0  0  0  0  0  0  0  0  0  0
   17.8261   22.7465   28.2841 H   0  0  0  0  0  0  0  0  0  0  0  0
   19.3298   21.7718   28.1597 H   0  0  0  0  0  0  0  0  0  0  0  0
   17.7497   20.1480   27.3906 H   0  0  0  0  0  0  0  0  0  0  0  0
   17.4128   20.3291   24.4540 H   0  0  0  0  0  0  0  0  0  0  0  0
   16.8453   17.8838   24.6539 H   0  0  0  0  0  0  0  0  0  0  0  0
   17.1899   17.9980   26.4132 H   0  0  0  0  0  0  0  0  0  0  0  0
   19.5203   18.7977   25.8415 H   0  0  0  0  0  0  0  0  0  0  0  0
   19.1522   18.4943   24.1098 H   0  0  0  0  0  0  0  0  0  0  0  0
   19.5079   16.4811   26.3812 H   0  0  0  0  0  0  0  0  0  0  0  0
   20.3287   16.5418   24.7846 H   0  0  0  0  0  0  0  0  0  0  0  0
   17.7287   15.3129   25.4249 H   0  0  0  0  0  0  0  0  0  0  0  0
   19.0245   15.7338   21.5915 H   0  0  0  0  0  0  0  0  0  0  0  0
   19.8433   16.6294   22.8993 H   0  0  0  0  0  0  0  0  0  0  0  0
   16.6533   14.2168   23.7557 H   0  0  0  0  0  0  0  0  0  0  0  0
   17.2001   14.4105   22.0686 H   0  0  0  0  0  0  0  0  0  0  0  0
   15.4328   19.9609   23.4757 H   0  0  0  0  0  0  0  0  0  0  0  0
   13.0726   19.6309   25.2297 H   0  0  0  0  0  0  0  0  0  0  0  0
   13.4806   22.0950   24.8973 H   0  0  0  0  0  0  0  0  0  0  0  0
   11.8906   21.5066   24.3039 H   0  0  0  0  0  0  0  0  0  0  0  0
   12.7399   21.5212   21.9930 H   0  0  0  0  0  0  0  0  0  0  0  0
   14.3401   22.0892   22.5792 H   0  0  0  0  0  0  0  0  0  0  0  0
   13.1956   24.0713   23.6041 H   0  0  0  0  0  0  0  0  0  0  0  0
   11.6600   23.5230   22.8504 H   0  0  0  0  0  0  0  0  0  0  0  0
   13.9991   24.7600   21.4916 H   0  0  0  0  0  0  0  0  0  0  0  0
   10.5006   23.8542   19.6126 H   0  0  0  0  0  0  0  0  0  0  0  0
   10.8161   23.1773   21.2328 H   0  0  0  0  0  0  0  0  0  0  0  0
   13.5474   25.6314   19.4542 H   0  0  0  0  0  0  0  0  0  0  0  0
   12.0261   25.2149   18.6206 H   0  0  0  0  0  0  0  0  0  0  0  0
   11.0593   19.2180   23.9458 H   0  0  0  0  0  0  0  0  0  0  0  0
   11.6333   17.2831   21.8891 H   0  0  0  0  0  0  0  0  0  0  0  0
    9.0639   17.4315   21.5827 H   0  0  0  0  0  0  0  0  0  0  0  0
    9.0994   18.5757   22.9669 H   0  0  0  0  0  0  0  0  0  0  0  0
   10.1723   16.7885   24.3461 H   0  0  0  0  0  0  0  0  0  0  0  0
    8.0815   15.4797   24.6397 H   0  0  0  0  0  0  0  0  0  0  0  0
    7.4760   16.1111   23.0708 H   0  0  0  0  0  0  0  0  0  0  0  0
    7.7550   17.2352   24.4438 H   0  0  0  0  0  0  0  0  0  0  0  0
   11.1425   15.4458   22.5091 H   0  0  0  0  0  0  0  0  0  0  0  0
    9.4895   14.9907   21.9733 H   0  0  0  0  0  0  0  0  0  0  0  0
   10.0924   14.4560   23.5787 H   0  0  0  0  0  0  0  0  0  0  0  0
   11.1780   19.9544   18.3053 H   0  0  0  0  0  0  0  0  0  0  0  0
   11.9553   18.2319   16.9158 H   0  0  0  0  0  0  0  0  0  0  0  0
   10.2131   18.0794   16.5056 H   0  0  0  0  0  0  0  0  0  0  0  0
   11.6202   16.0108   17.5016 H   0  0  0  0  0  0  0  0  0  0  0  0
    9.8956   16.2776   17.9273 H   0  0  0  0  0  0  0  0  0  0  0  0
   10.6899   16.2511   20.0800 H   0  0  0  0  0  0  0  0  0  0  0  0
   12.3612   16.6737   19.5750 H   0  0  0  0  0  0  0  0  0  0  0  0
    6.8152   20.8759   18.4226 H   0  0  0  0  0  0  0  0  0  0  0  0
    6.7186   22.5382   16.8310 H   0  0  0  0  0  0  0  0  0  0  0  0
    6.4342   21.2709   15.5901 H   0  0  0  0  0  0  0  0  0  0  0  0
    8.6386   22.9185   15.7815 H   0  0  0  0  0  0  0  0  0  0  0  0
    8.5226   21.3880   14.8485 H   0  0  0  0  0  0  0  0  0  0  0  0
   10.2253   20.6406   16.1817 H   0  0  0  0  0  0  0  0  0  0  0  0
    9.9867   21.9650   17.3716 H   0  0  0  0  0  0  0  0  0  0  0  0
    4.9971   19.7332   18.2708 H   0  0  0  0  0  0  0  0  0  0  0  0
    5.1629   16.9740   17.4210 H   0  0  0  0  0  0  0  0  0  0  0  0
    2.7391   18.6181   18.2785 H   0  0  0  0  0  0  0  0  0  0  0  0
    3.2596   17.6787   20.3395 H   0  0  0  0  0  0  0  0  0  0  0  0
    1.7823   16.4184   18.9079 H   0  0  0  0  0  0  0  0  0  0  0  0
    3.2351   15.5973   18.2434 H   0  0  0  0  0  0  0  0  0  0  0  0
    2.1373   16.5053   17.1493 H   0  0  0  0  0  0  0  0  0  0  0  0
    3.8336   17.6966   13.2371 H   0  0  0  0  0  0  0  0  0  0  0  0
    3.8202   15.5620   12.2017 H   0  0  0  0  0  0  0  0  0  0  0  0
    2.9005   14.8056   13.5466 H   0  0  0  0  0  0  0  0  0  0  0  0
    5.8453   15.6680   13.5049 H   0  0  0  0  0  0  0  0  0  0  0  0
    5.1609   14.0662   13.9436 H   0  0  0  0  0  0  0  0  0  0  0  0
    4.2093   14.8990   15.9732 H   0  0  0  0  0  0  0  0  0  0  0  0
    5.7483   15.8214   15.8874 H   0  0  0  0  0  0  0  0  0  0  0  0
    1.8753   18.1887   12.2788 H   0  0  0  0  0  0  0  0  0  0  0  0
   -0.4579   17.9158   14.1336 H   0  0  0  0  0  0  0  0  0  0  0  0
    0.3862   20.2391   13.7051 H   0  0  0  0  0  0  0  0  0  0  0  0
   -1.3181   19.9915   13.1942 H   0  0  0  0  0  0  0  0  0  0  0  0
   -0.0486   21.0598   11.5999 H   0  0  0  0  0  0  0  0  0  0  0  0
    0.6857   17.0789   10.9675 H   0  0  0  0  0  0  0  0  0  0  0  0
   -1.9725   16.6710    9.8186 H   0  0  0  0  0  0  0  0  0  0  0  0
   -0.7553   15.4613    8.0217 H   0  0  0  0  0  0  0  0  0  0  0  0
    0.7663   15.6268    8.9619 H   0  0  0  0  0  0  0  0  0  0  0  0
    0.7973   17.9954    8.6421 H   0  0  0  0  0  0  0  0  0  0  0  0
   -0.8568   17.9832    7.9417 H   0  0  0  0  0  0  0  0  0  0  0  0
   -0.1081   16.7595    6.0014 H   0  0  0  0  0  0  0  0  0  0  0  0
    1.5067   16.4747    6.7350 H   0  0  0  0  0  0  0  0  0  0  0  0
    1.9892   18.8820    6.6529 H   0  0  0  0  0  0  0  0  0  0  0  0
    0.3572   19.1998    5.9731 H   0  0  0  0  0  0  0  0  0  0  0  0
    2.0440   19.1288    4.2636 H   0  0  0  0  0  0  0  0  0  0  0  0
    0.9834   17.8875    4.0546 H   0  0  0  0  0  0  0  0  0  0  0  0
    2.4790   17.5962    4.6775 H   0  0  0  0  0  0  0  0  0  0  0  0
   -2.7864   12.6086   11.5018 H   0  0  0  0  0  0  0  0  0  0  0  0
   -4.5175   11.6777   10.1916 H   0  0  0  0  0  0  0  0  0  0  0  0
   -3.6408   11.9683    8.6510 H   0  0  0  0  0  0  0  0  0  0  0  0
   -5.2061   13.9462   10.3728 H   0  0  0  0  0  0  0  0  0  0  0  0
   -5.2616   13.7071    8.5933 H   0  0  0  0  0  0  0  0  0  0  0  0
   -3.2326   14.8281    8.2489 H   0  0  0  0  0  0  0  0  0  0  0  0
   -3.8016   15.7008    9.7123 H   0  0  0  0  0  0  0  0  0  0  0  0
   -1.6821   10.6744   11.6026 H   0  0  0  0  0  0  0  0  0  0  0  0
    0.8523   10.4908   10.3001 H   0  0  0  0  0  0  0  0  0  0  0  0
   -0.8481    8.4006   11.7427 H   0  0  0  0  0  0  0  0  0  0  0  0
    0.4882    9.3885   12.4247 H   0  0  0  0  0  0  0  0  0  0  0  0
    1.8790    8.3184   10.9281 H   0  0  0  0  0  0  0  0  0  0  0  0
    1.5811    9.3974    8.4789 H   0  0  0  0  0  0  0  0  0  0  0  0
   -0.4623    8.6039    6.5818 H   0  0  0  0  0  0  0  0  0  0  0  0
    1.3943    8.0387    5.0684 H   0  0  0  0  0  0  0  0  0  0  0  0
    2.7918    7.1707    6.6989 H   0  0  0  0  0  0  0  0  0  0  0  0
    2.5154   10.2434    4.9864 H   0  0  0  0  0  0  0  0  0  0  0  0
    1.9281   10.6077    6.6444 H   0  0  0  0  0  0  0  0  0  0  0  0
    0.7551   10.4211    5.2968 H   0  0  0  0  0  0  0  0  0  0  0  0
    0.9609    6.9722    9.1982 H   0  0  0  0  0  0  0  0  0  0  0  0
    1.1205    4.3221    8.1169 H   0  0  0  0  0  0  0  0  0  0  0  0
    0.3612    5.1411   10.9469 H   0  0  0  0  0  0  0  0  0  0  0  0
    2.0429    5.0399   10.3236 H   0  0  0  0  0  0  0  0  0  0  0  0
    0.0769    2.6959   10.4612 H   0  0  0  0  0  0  0  0  0  0  0  0
    2.0884    1.3378    9.9922 H   0  0  0  0  0  0  0  0  0  0  0  0
    3.0672    2.8367    9.8443 H   0  0  0  0  0  0  0  0  0  0  0  0
    1.7554    2.5004    8.6641 H   0  0  0  0  0  0  0  0  0  0  0  0
    0.7161    3.5627   12.6684 H   0  0  0  0  0  0  0  0  0  0  0  0
    2.4493    3.4573   12.2086 H   0  0  0  0  0  0  0  0  0  0  0  0
    1.4640    1.9617   12.3464 H   0  0  0  0  0  0  0  0  0  0  0  0
   -2.8091    5.1041    9.1084 H   0  0  0  0  0  0  0  0  0  0  0  0
   -1.5484    6.2296    9.4879 H   0  0  0  0  0  0  0  0  0  0  0  0
  1  2  2  0  0  0  0
  1  3  1  0  0  0  0
  1  4  1  0  0  0  0
  3118  1  0  0  0  0
  3119  1  0  0  0  0
  3120  1  0  0  0  0
  4  5  1  0  0  0  0
  4121  1  0  0  0  0
  5  6  1  0  0  0  0
  5  8  1  0  0  0  0
  5122  1  6  0  0  0
  6  7  2  0  0  0  0
  6 12  1  0  0  0  0
  8  9  1  0  0  0  0
  8 10  1  0  0  0  0
  8123  1  1  0  0  0
  9 11  1  0  0  0  0
  9124  1  0  0  0  0
  9125  1  0  0  0  0
 10126  1  0  0  0  0
 10127  1  0  0  0  0
 10128  1  0  0  0  0
 11129  1  0  0  0  0
 11130  1  0  0  0  0
 11131  1  0  0  0  0
 12 13  1  0  0  0  0
 12132  1  0  0  0  0
 13 14  1  0  0  0  0
 13133  1  0  0  0  0
 13134  1  0  0  0  0
 14 15  2  0  0  0  0
 14 16  1  0  0  0  0
 16 17  1  0  0  0  0
 16135  1  0  0  0  0
 17 18  1  0  0  0  0
 17 20  1  0  0  0  0
 17136  1  6  0  0  0
 18 19  2  0  0  0  0
 18 27  1  0  0  0  0
 20 21  1  0  0  0  0
 20137  1  0  0  0  0
 20138  1  0  0  0  0
 21 22  1  0  0  0  0
 21139  1  0  0  0  0
 21140  1  0  0  0  0
 22 23  1  0  0  0  0
 22141  1  0  0  0  0
 22142  1  0  0  0  0
 23 24  1  0  0  0  0
 23143  1  0  0  0  0
 24 25  1  0  0  0  0
 24 26  1  0  0  0  0
 25144  1  0  0  0  0
 25145  1  0  0  0  0
 26146  1  0  0  0  0
 26147  1  0  0  0  0
 27 28  1  0  0  0  0
 27148  1  0  0  0  0
 28 29  1  0  0  0  0
 28 31  1  0  0  0  0
 28149  1  1  0  0  0
 29 30  2  0  0  0  0
 29 38  1  0  0  0  0
 31 32  1  0  0  0  0
 31150  1  0  0  0  0
 31151  1  0  0  0  0
 32 33  1  0  0  0  0
 32152  1  0  0  0  0
 32153  1  0  0  0  0
 33 34  1  0  0  0  0
 33154  1  0  0  0  0
 33155  1  0  0  0  0
 34 35  1  0  0  0  0
 34156  1  0  0  0  0
 35 36  1  0  0  0  0
 35 37  1  0  0  0  0
 36157  1  0  0  0  0
 36158  1  0  0  0  0
 37159  1  0  0  0  0
 37160  1  0  0  0  0
 38 39  1  0  0  0  0
 38161  1  0  0  0  0
 39 40  1  0  0  0  0
 39 42  1  0  0  0  0
 39162  1  6  0  0  0
 40 41  2  0  0  0  0
 40 46  1  0  0  0  0
 42 43  1  0  0  0  0
 42163  1  0  0  0  0
 42164  1  0  0  0  0
 43 44  1  0  0  0  0
 43 45  1  0  0  0  0
 43165  1  0  0  0  0
 44166  1  0  0  0  0
 44167  1  0  0  0  0
 44168  1  0  0  0  0
 45169  1  0  0  0  0
 45170  1  0  0  0  0
 45171  1  0  0  0  0
 46 47  1  0  0  0  0
 46 52  1  0  0  0  0
 47 48  1  0  0  0  0
 47 50  1  0  0  0  0
 47172  1  6  0  0  0
 48 49  2  0  0  0  0
 48 53  1  0  0  0  0
 50 51  1  0  0  0  0
 50173  1  0  0  0  0
 50174  1  0  0  0  0
 51 52  1  0  0  0  0
 51175  1  0  0  0  0
 51176  1  0  0  0  0
 52177  1  0  0  0  0
 52178  1  0  0  0  0
 53 54  1  0  0  0  0
 53 59  1  0  0  0  0
 54 55  1  0  0  0  0
 54 57  1  0  0  0  0
 54179  1  1  0  0  0
 55 56  2  0  0  0  0
 55 60  1  0  0  0  0
 57 58  1  0  0  0  0
 57180  1  0  0  0  0
 57181  1  0  0  0  0
 58 59  1  0  0  0  0
 58182  1  0  0  0  0
 58183  1  0  0  0  0
 59184  1  0  0  0  0
 59185  1  0  0  0  0
 60 61  1  0  0  0  0
 60186  1  0  0  0  0
 61 62  1  0  0  0  0
 61 64  1  0  0  0  0
 61187  1  1  0  0  0
 62 63  2  0  0  0  0
 62 67  1  0  0  0  0
 64 65  1  0  0  0  0
 64 66  1  0  0  0  0
 64188  1  6  0  0  0
 65189  1  0  0  0  0
 66190  1  0  0  0  0
 66191  1  0  0  0  0
 66192  1  0  0  0  0
 67 68  1  0  0  0  0
 67 73  1  0  0  0  0
 68 69  1  0  0  0  0
 68 71  1  0  0  0  0
 68193  1  6  0  0  0
 69 70  2  0  0  0  0
 69 74  1  0  0  0  0
 71 72  1  0  0  0  0
 71194  1  0  0  0  0
 71195  1  0  0  0  0
 72 73  1  0  0  0  0
 72196  1  0  0  0  0
 72197  1  0  0  0  0
 73198  1  0  0  0  0
 73199  1  0  0  0  0
 74 75  1  0  0  0  0
 74200  1  0  0  0  0
 75 76  1  0  0  0  0
 75 78  1  0  0  0  0
 75201  1  1  0  0  0
 76 77  2  0  0  0  0
 76 80  1  0  0  0  0
 78 79  1  0  0  0  0
 78202  1  0  0  0  0
 78203  1  0  0  0  0
 79204  1  0  0  0  0
 80 81  1  0  0  0  0
 80205  1  0  0  0  0
 81 82  1  0  0  0  0
 81 84  1  0  0  0  0
 81206  1  6  0  0  0
 82 83  2  0  0  0  0
 82 89  1  0  0  0  0
 84 85  1  0  0  0  0
 84207  1  0  0  0  0
 84208  1  0  0  0  0
 85 86  1  0  0  0  0
 85209  1  0  0  0  0
 85210  1  0  0  0  0
 86 87  1  0  0  0  0
 86211  1  0  0  0  0
 86212  1  0  0  0  0
 87 88  1  0  0  0  0
 87213  1  0  0  0  0
 87214  1  0  0  0  0
 88215  1  0  0  0  0
 88216  1  0  0  0  0
 88217  1  0  0  0  0
 89 90  1  0  0  0  0
 89 95  1  0  0  0  0
 90 91  1  0  0  0  0
 90 93  1  0  0  0  0
 90218  1  1  0  0  0
 91 92  2  0  0  0  0
 91 96  1  0  0  0  0
 93 94  1  0  0  0  0
 93219  1  0  0  0  0
 93220  1  0  0  0  0
 94 95  1  0  0  0  0
 94221  1  0  0  0  0
 94222  1  0  0  0  0
 95223  1  0  0  0  0
 95224  1  0  0  0  0
 96 97  1  0  0  0  0
 96225  1  0  0  0  0
 97 98  1  0  0  0  0
 97100  1  0  0  0  0
 97226  1  6  0  0  0
 98 99  2  0  0  0  0
 98102  1  0  0  0  0
100101  1  0  0  0  0
100227  1  0  0  0  0
100228  1  0  0  0  0
101229  1  0  0  0  0
102103  1  0  0  0  0
102230  1  0  0  0  0
103104  1  0  0  0  0
103106  1  0  0  0  0
103231  1  6  0  0  0
104105  2  0  0  0  0
104109  1  0  0  0  0
106107  1  0  0  0  0
106108  1  0  0  0  0
106232  1  6  0  0  0
107233  1  0  0  0  0
108234  1  0  0  0  0
108235  1  0  0  0  0
108236  1  0  0  0  0
109110  1  0  0  0  0
109237  1  0  0  0  0
110111  1  0  0  0  0
110113  1  0  0  0  0
110238  1  6  0  0  0
111112  2  0  0  0  0
111117  1  0  0  0  0
113114  1  0  0  0  0
113239  1  0  0  0  0
113240  1  0  0  0  0
114115  1  0  0  0  0
114116  1  0  0  0  0
114241  1  0  0  0  0
115242  1  0  0  0  0
115243  1  0  0  0  0
115244  1  0  0  0  0
116245  1  0  0  0  0
116246  1  0  0  0  0
116247  1  0  0  0  0
117248  1  0  0  0  0
117249  1  0  0  0  0
M  CHG  1  88   1
M  END
