4z9l_ligand
 OpenBabel08222323353D

 70 74  0  0  0  0  0  0  0  0999 V2000
   22.2000   11.0150   30.7570 N   0  0  0  0  0  0  0  0  0  0  0  0
   22.2780   12.3860   30.7190 C   0  0  0  0  0  0  0  0  0  0  0  0
   21.4500   12.9460   31.5580 N   0  0  0  0  0  0  0  0  0  0  0  0
   20.8010   11.9110   32.2000 C   0  0  0  0  0  0  0  0  0  0  0  0
   21.2360   10.6860   31.7150 C   0  0  0  0  0  0  0  0  0  0  0  0
   22.9600   10.1030   29.8940 C   0  0  0  0  0  0  0  0  0  0  0  0
   24.3340    9.7400   30.4480 C   0  0  0  0  0  0  0  0  0  0  0  0
   24.7860   10.5230   31.6420 C   0  0  0  0  0  0  0  0  0  0  0  0
   23.2050   13.2110   29.8620 C   0  0  0  0  0  0  0  0  0  0  0  0
   22.3890   13.9220   28.7790 C   0  0  0  0  0  0  0  0  0  0  0  0
   23.2900   14.7370   27.8720 C   0  0  0  0  0  0  0  0  0  0  0  0
   24.0620   15.7320   28.6670 N   0  3  0  0  0  0  0  0  0  0  0  0
   24.8680   15.0900   29.7450 C   0  0  0  0  0  0  0  0  0  0  0  0
   23.9780   14.2670   30.6570 C   0  0  0  0  0  0  0  0  0  0  0  0
   19.7100   12.2760   33.1270 C   0  0  0  0  0  0  0  0  0  0  0  0
   20.7530    9.3180   32.0230 C   0  0  0  0  0  0  0  0  0  0  0  0
   19.6460   11.7290   34.4060 C   0  0  0  0  0  0  0  0  0  0  0  0
   18.6620   12.1450   35.2840 C   0  0  0  0  0  0  0  0  0  0  0  0
   17.7160   13.0860   34.8910 C   0  0  0  0  0  0  0  0  0  0  0  0
   17.7710   13.6230   33.6150 C   0  0  0  0  0  0  0  0  0  0  0  0
   18.7660   13.2260   32.7420 C   0  0  0  0  0  0  0  0  0  0  0  0
   18.6690   11.5180   36.8940 Cl  0  0  0  0  0  0  0  0  0  0  0  0
   16.4790   13.6230   35.9830 Cl  0  0  0  0  0  0  0  0  0  0  0  0
   19.4600    9.0730   32.4670 C   0  0  0  0  0  0  0  0  0  0  0  0
   19.1530    7.7670   32.7920 C   0  0  0  0  0  0  0  0  0  0  0  0
   20.0120    6.7470   32.6450 N   0  0  0  0  0  0  0  0  0  0  0  0
   21.2050    7.0730   32.1200 C   0  0  0  0  0  0  0  0  0  0  0  0
   21.6360    8.3230   31.8330 N   0  0  0  0  0  0  0  0  0  0  0  0
   22.0030    6.0430   31.7830 N   0  0  0  0  0  0  0  0  0  0  0  0
   23.3160    6.0850   31.1410 C   0  0  0  0  0  0  0  0  0  0  0  0
   24.1360    4.8510   31.5010 C   0  0  0  0  0  0  0  0  0  0  0  0
   25.4950    4.8780   30.8090 C   0  0  0  0  0  0  0  0  0  0  0  0
   25.3430    4.9950   29.2960 C   0  0  0  0  0  0  0  0  0  0  0  0
   24.4960    6.2110   28.9180 C   0  0  0  0  0  0  0  0  0  0  0  0
   23.1450    6.1920   29.6310 C   0  0  0  0  0  0  0  0  0  0  0  0
   23.0963   10.5842   28.9143 H   0  0  0  0  0  0  0  0  0  0  0  0
   22.3794    9.1769   29.7701 H   0  0  0  0  0  0  0  0  0  0  0  0
   25.0716    9.8923   29.6463 H   0  0  0  0  0  0  0  0  0  0  0  0
   24.3135    8.6770   30.7303 H   0  0  0  0  0  0  0  0  0  0  0  0
   25.7832   10.1768   31.9514 H   0  0  0  0  0  0  0  0  0  0  0  0
   24.0744   10.3760   32.4678 H   0  0  0  0  0  0  0  0  0  0  0  0
   24.8325   11.5912   31.3838 H   0  0  0  0  0  0  0  0  0  0  0  0
   23.9294   12.5343   29.3852 H   0  0  0  0  0  0  0  0  0  0  0  0
   21.6598   14.5915   29.2585 H   0  0  0  0  0  0  0  0  0  0  0  0
   21.8567   13.1706   28.1773 H   0  0  0  0  0  0  0  0  0  0  0  0
   22.6745   15.2654   27.1291 H   0  0  0  0  0  0  0  0  0  0  0  0
   23.9900   14.0635   27.3559 H   0  0  0  0  0  0  0  0  0  0  0  0
   23.4167   16.3821   29.0878 H   0  0  0  0  0  0  0  0  0  0  0  0
   24.6842   16.2288   28.0489 H   0  0  0  0  0  0  0  0  0  0  0  0
   25.3684   15.8709   30.3364 H   0  0  0  0  0  0  0  0  0  0  0  0
   25.6243   14.4339   29.2893 H   0  0  0  0  0  0  0  0  0  0  0  0
   24.6019   13.7645   31.4108 H   0  0  0  0  0  0  0  0  0  0  0  0
   23.2623   14.9345   31.1592 H   0  0  0  0  0  0  0  0  0  0  0  0
   20.3659   10.9788   34.7127 H   0  0  0  0  0  0  0  0  0  0  0  0
   17.0343   14.3539   33.3017 H   0  0  0  0  0  0  0  0  0  0  0  0
   18.8126   13.6575   31.7487 H   0  0  0  0  0  0  0  0  0  0  0  0
   18.7282    9.8680   32.5540 H   0  0  0  0  0  0  0  0  0  0  0  0
   18.1660    7.5544   33.1867 H   0  0  0  0  0  0  0  0  0  0  0  0
   21.6424    5.1043   32.0060 H   0  0  0  0  0  0  0  0  0  0  0  0
   23.8532    6.9759   31.4984 H   0  0  0  0  0  0  0  0  0  0  0  0
   23.5890    3.9506   31.1848 H   0  0  0  0  0  0  0  0  0  0  0  0
   24.2873    4.8246   32.5902 H   0  0  0  0  0  0  0  0  0  0  0  0
   26.0356    3.9494   31.0442 H   0  0  0  0  0  0  0  0  0  0  0  0
   26.0689    5.7403   31.1794 H   0  0  0  0  0  0  0  0  0  0  0  0
   24.8567    4.0858   28.9128 H   0  0  0  0  0  0  0  0  0  0  0  0
   26.3397    5.0968   28.8420 H   0  0  0  0  0  0  0  0  0  0  0  0
   24.3272    6.2058   27.8311 H   0  0  0  0  0  0  0  0  0  0  0  0
   25.0371    7.1260   29.2007 H   0  0  0  0  0  0  0  0  0  0  0  0
   22.6035    7.1204   29.3968 H   0  0  0  0  0  0  0  0  0  0  0  0
   22.5641    5.3287   29.2743 H   0  0  0  0  0  0  0  0  0  0  0  0
  1  2  1  0  0  0  0
  1  5  1  0  0  0  0
  1  6  1  0  0  0  0
  2  3  2  0  0  0  0
  2  9  1  0  0  0  0
  3  4  1  0  0  0  0
  4  5  2  0  0  0  0
  4 15  1  0  0  0  0
  5 16  1  0  0  0  0
  6  7  1  0  0  0  0
  6 36  1  0  0  0  0
  6 37  1  0  0  0  0
  7  8  1  0  0  0  0
  7 38  1  0  0  0  0
  7 39  1  0  0  0  0
  8 40  1  0  0  0  0
  8 41  1  0  0  0  0
  8 42  1  0  0  0  0
  9 10  1  0  0  0  0
  9 14  1  0  0  0  0
  9 43  1  0  0  0  0
 10 11  1  0  0  0  0
 10 44  1  0  0  0  0
 10 45  1  0  0  0  0
 11 12  1  0  0  0  0
 11 46  1  0  0  0  0
 11 47  1  0  0  0  0
 12 13  1  0  0  0  0
 12 48  1  0  0  0  0
 12 49  1  0  0  0  0
 13 14  1  0  0  0  0
 13 50  1  0  0  0  0
 13 51  1  0  0  0  0
 14 52  1  0  0  0  0
 14 53  1  0  0  0  0
 15 17  2  0  0  0  0
 15 21  1  0  0  0  0
 16 24  2  0  0  0  0
 16 28  1  0  0  0  0
 17 18  1  0  0  0  0
 17 54  1  0  0  0  0
 18 19  2  0  0  0  0
 18 22  1  0  0  0  0
 19 20  1  0  0  0  0
 19 23  1  0  0  0  0
 20 21  2  0  0  0  0
 20 55  1  0  0  0  0
 21 56  1  0  0  0  0
 24 25  1  0  0  0  0
 24 57  1  0  0  0  0
 25 26  2  0  0  0  0
 25 58  1  0  0  0  0
 26 27  1  0  0  0  0
 27 28  2  0  0  0  0
 27 29  1  0  0  0  0
 29 30  1  0  0  0  0
 29 59  1  0  0  0  0
 30 31  1  0  0  0  0
 30 35  1  0  0  0  0
 30 60  1  0  0  0  0
 31 32  1  0  0  0  0
 31 61  1  0  0  0  0
 31 62  1  0  0  0  0
 32 33  1  0  0  0  0
 32 63  1  0  0  0  0
 32 64  1  0  0  0  0
 33 34  1  0  0  0  0
 33 65  1  0  0  0  0
 33 66  1  0  0  0  0
 34 35  1  0  0  0  0
 34 67  1  0  0  0  0
 34 68  1  0  0  0  0
 35 69  1  0  0  0  0
 35 70  1  0  0  0  0
M  CHG  1  12   1
M  END
