4zg9_ligand
 OpenBabel08222323353D

 50 54  0  0  1  0  0  0  0  0999 V2000
   35.7070   60.2410   -9.2490 C   0  0  0  0  0  0  0  0  0  0  0  0
   34.9660   61.2500  -10.1270 C   0  0  0  0  0  0  0  0  0  0  0  0
   35.8550   61.8860  -11.1680 C   0  0  0  0  0  0  0  0  0  0  0  0
   34.4790   58.1790  -10.1490 C   0  0  0  0  0  0  0  0  0  0  0  0
   34.6130   56.8550  -10.7340 C   0  0  2  0  0  0  0  0  0  0  0  0
   33.9070   55.8310   -9.8440 C   0  0  0  0  0  0  0  0  0  0  0  0
   36.7230   55.5890  -11.0110 C   0  0  0  0  0  0  0  0  0  0  0  0
   35.9450   54.3610  -10.6000 C   0  0  0  0  0  0  0  0  0  0  0  0
   34.1630   53.1740   -9.7750 C   0  0  0  0  0  0  0  0  0  0  0  0
   33.0010   52.6760   -9.2530 C   0  0  0  0  0  0  0  0  0  0  0  0
   33.8940   50.4410   -9.4850 C   0  0  0  0  0  0  0  0  0  0  0  0
   35.0870   50.9280  -10.0060 C   0  0  0  0  0  0  0  0  0  0  0  0
   37.6370   52.0800  -12.5480 C   0  0  0  0  0  0  0  0  0  0  0  0
   38.3490   52.5420  -14.7950 C   0  0  0  0  0  0  0  0  0  0  0  0
   37.1800   50.4990  -14.2890 C   0  0  0  0  0  0  0  0  0  0  0  0
   37.8660   50.9460  -16.4980 F   0  0  0  0  0  0  0  0  0  0  0  0
   37.7920   51.3390  -15.2080 C   0  0  0  0  0  0  0  0  0  0  0  0
   38.2780   52.9070  -13.4570 C   0  0  0  0  0  0  0  0  0  0  0  0
   37.1160   50.8650  -12.9640 C   0  0  0  0  0  0  0  0  0  0  0  0
   37.5490   52.4630  -11.1030 C   0  0  0  0  0  0  0  0  0  0  0  0
   36.2760   53.0330  -10.6730 N   0  0  0  0  0  0  0  0  0  0  0  0
   36.0580   56.8090  -10.5680 N   0  0  0  0  0  0  0  0  0  0  0  0
   36.5540   57.9620  -10.0680 C   0  0  0  0  0  0  0  0  0  0  0  0
   37.8040   58.1820   -9.8720 O   0  0  0  0  0  0  0  0  0  0  0  0
   35.2740   52.2930  -10.1810 C   0  0  0  0  0  0  0  0  0  0  0  0
   32.8760   51.3010   -9.1110 C   0  0  0  0  0  0  0  0  0  0  0  0
   34.5980   54.5270  -10.0390 C   0  0  0  0  0  0  0  0  0  0  0  0
   33.3100   58.7230  -10.0720 O   0  0  0  0  0  0  0  0  0  0  0  0
   35.5810   58.8820   -9.7860 N   0  0  0  0  0  0  0  0  0  0  0  0
   37.0570   61.7250  -11.1030 O   0  5  0  0  0  0  0  0  0  0  0  0
   35.3730   62.6420  -12.1630 O   0  0  0  0  0  0  0  0  0  0  0  0
   35.2825   60.2673   -8.2346 H   0  0  0  0  0  0  0  0  0  0  0  0
   36.7718   60.5139   -9.2081 H   0  0  0  0  0  0  0  0  0  0  0  0
   34.5572   62.0424   -9.4829 H   0  0  0  0  0  0  0  0  0  0  0  0
   34.1417   60.7316  -10.6386 H   0  0  0  0  0  0  0  0  0  0  0  0
   34.2757   56.7762  -11.7780 H   0  0  0  0  0  0  0  0  0  0  0  0
   32.8497   55.7443  -10.1349 H   0  0  0  0  0  0  0  0  0  0  0  0
   33.9733   56.1386   -8.7900 H   0  0  0  0  0  0  0  0  0  0  0  0
   36.8118   55.6069  -12.1072 H   0  0  0  0  0  0  0  0  0  0  0  0
   37.7264   55.5445  -10.5625 H   0  0  0  0  0  0  0  0  0  0  0  0
   32.1966   53.3396   -8.9571 H   0  0  0  0  0  0  0  0  0  0  0  0
   33.7588   49.3716   -9.3698 H   0  0  0  0  0  0  0  0  0  0  0  0
   35.8772   50.2374  -10.2777 H   0  0  0  0  0  0  0  0  0  0  0  0
   38.8362   53.1922  -15.5126 H   0  0  0  0  0  0  0  0  0  0  0  0
   36.7534   49.5569  -14.6138 H   0  0  0  0  0  0  0  0  0  0  0  0
   38.7233   53.8375  -13.1239 H   0  0  0  0  0  0  0  0  0  0  0  0
   36.6559   50.1998  -12.2422 H   0  0  0  0  0  0  0  0  0  0  0  0
   38.3359   53.2049  -10.9020 H   0  0  0  0  0  0  0  0  0  0  0  0
   37.7343   51.5601  -10.5027 H   0  0  0  0  0  0  0  0  0  0  0  0
   31.9611   50.8917   -8.6982 H   0  0  0  0  0  0  0  0  0  0  0  0
  1  2  1  0  0  0  0
  1 32  1  0  0  0  0
  1 33  1  0  0  0  0
  2  3  1  0  0  0  0
  2 34  1  0  0  0  0
  2 35  1  0  0  0  0
  3 30  1  0  0  0  0
  3 31  2  0  0  0  0
  4 28  2  0  0  0  0
  4 29  1  0  0  0  0
  5  4  1  0  0  0  0
  5 36  1  6  0  0  0
  6  5  1  0  0  0  0
  6 37  1  0  0  0  0
  6 38  1  0  0  0  0
  7 22  1  0  0  0  0
  7 39  1  0  0  0  0
  7 40  1  0  0  0  0
  8  7  1  0  0  0  0
  8 27  2  0  0  0  0
  9 10  2  0  0  0  0
  9 25  1  0  0  0  0
 10 26  1  0  0  0  0
 10 41  1  0  0  0  0
 11 42  1  0  0  0  0
 12 11  1  0  0  0  0
 12 43  1  0  0  0  0
 13 18  2  0  0  0  0
 13 19  1  0  0  0  0
 14 17  2  0  0  0  0
 14 44  1  0  0  0  0
 15 17  1  0  0  0  0
 15 45  1  0  0  0  0
 17 16  1  0  0  0  0
 18 14  1  0  0  0  0
 18 46  1  0  0  0  0
 19 15  2  0  0  0  0
 19 47  1  0  0  0  0
 20 13  1  0  0  0  0
 20 21  1  0  0  0  0
 20 48  1  0  0  0  0
 20 49  1  0  0  0  0
 21  8  1  0  0  0  0
 21 25  1  0  0  0  0
 22  5  1  0  0  0  0
 22 23  1  0  0  0  0
 23 24  2  0  0  0  0
 23 29  1  0  0  0  0
 25 12  2  0  0  0  0
 26 11  2  0  0  0  0
 26 50  1  0  0  0  0
 27  6  1  0  0  0  0
 27  9  1  0  0  0  0
 29  1  1  0  0  0  0
M  CHG  1  30  -1
M  END
