4zh4_ligand
 OpenBabel08222323353D

 32 34  0  0  0  0  0  0  0  0999 V2000
   31.2670   96.7310    7.9150 F   0  0  0  0  0  0  0  0  0  0  0  0
   31.8850   96.4400    9.0220 C   0  0  0  0  0  0  0  0  0  0  0  0
   32.3780   95.2710    8.9330 F   0  0  0  0  0  0  0  0  0  0  0  0
   31.0280   96.4530    9.9970 F   0  0  0  0  0  0  0  0  0  0  0  0
   32.9160   97.3400    9.3000 C   0  0  0  0  0  0  0  0  0  0  0  0
   33.3780   98.2810    8.3790 C   0  0  0  0  0  0  0  0  0  0  0  0
   33.4990   97.2700   10.5540 C   0  0  0  0  0  0  0  0  0  0  0  0
   33.0610   96.3840   11.4090 F   0  0  0  0  0  0  0  0  0  0  0  0
   34.5280   98.1290   10.9060 C   0  0  0  0  0  0  0  0  0  0  0  0
   34.9820   99.0650    9.9900 C   0  0  0  0  0  0  0  0  0  0  0  0
   34.4140   99.1430    8.7260 C   0  0  0  0  0  0  0  0  0  0  0  0
   34.8760  100.0600    7.8800 C   0  0  0  0  0  0  0  0  0  0  0  0
   34.8930  101.3630    8.1080 C   0  0  0  0  0  0  0  0  0  0  0  0
   35.4410  101.9280    7.0290 N   0  0  0  0  0  0  0  0  0  0  0  0
   35.7450  101.0710    6.2050 N   0  0  0  0  0  0  0  0  0  0  0  0
   35.4120   99.8800    6.6890 C   0  0  0  0  0  0  0  0  0  0  0  0
   35.6060   98.7320    6.0520 C   0  0  0  0  0  0  0  0  0  0  0  0
   36.6880   97.9320    6.3890 C   0  0  0  0  0  0  0  0  0  0  0  0
   36.9030   96.7350    5.7190 C   0  0  0  0  0  0  0  0  0  0  0  0
   36.0380   96.3440    4.7080 C   0  0  0  0  0  0  0  0  0  0  0  0
   36.2460   95.2130    4.0780 F   0  0  0  0  0  0  0  0  0  0  0  0
   34.9580   97.1460    4.3650 C   0  0  0  0  0  0  0  0  0  0  0  0
   34.7430   98.3430    5.0350 C   0  0  0  0  0  0  0  0  0  0  0  0
   32.9301   98.3405    7.3936 H   0  0  0  0  0  0  0  0  0  0  0  0
   34.9751   98.0693   11.8917 H   0  0  0  0  0  0  0  0  0  0  0  0
   35.7853   99.7400   10.2624 H   0  0  0  0  0  0  0  0  0  0  0  0
   34.5316  101.8739    8.9992 H   0  0  0  0  0  0  0  0  0  0  0  0
   36.1851  101.2462    5.2904 H   0  0  0  0  0  0  0  0  0  0  0  0
   37.3662   98.2416    7.1760 H   0  0  0  0  0  0  0  0  0  0  0  0
   37.7455   96.1072    5.9857 H   0  0  0  0  0  0  0  0  0  0  0  0
   34.2830   96.8380    3.5747 H   0  0  0  0  0  0  0  0  0  0  0  0
   33.9032   98.9730    4.7650 H   0  0  0  0  0  0  0  0  0  0  0  0
  1  2  1  0  0  0  0
  2  3  1  0  0  0  0
  2  4  1  0  0  0  0
  2  5  1  0  0  0  0
  5  6  2  0  0  0  0
  5  7  1  0  0  0  0
  6 11  1  0  0  0  0
  6 24  1  0  0  0  0
  7  8  1  0  0  0  0
  7  9  2  0  0  0  0
  9 10  1  0  0  0  0
  9 25  1  0  0  0  0
 10 11  2  0  0  0  0
 10 26  1  0  0  0  0
 11 12  1  0  0  0  0
 12 13  1  0  0  0  0
 12 16  2  0  0  0  0
 13 14  2  0  0  0  0
 13 27  1  0  0  0  0
 14 15  1  0  0  0  0
 15 16  1  0  0  0  0
 15 28  1  0  0  0  0
 16 17  1  0  0  0  0
 17 18  2  0  0  0  0
 17 23  1  0  0  0  0
 18 19  1  0  0  0  0
 18 29  1  0  0  0  0
 19 20  2  0  0  0  0
 19 30  1  0  0  0  0
 20 21  1  0  0  0  0
 20 22  1  0  0  0  0
 22 23  2  0  0  0  0
 22 31  1  0  0  0  0
 23 32  1  0  0  0  0
M  END
