4zj5_ligand
 OpenBabel08222323353D

162165  0  0  1  0  0  0  0  0999 V2000
  -33.3250  -10.9280   -2.3570 N   0  3  0  0  0  0  0  0  0  0  0  0
  -32.9800  -11.9430   -3.3160 C   0  0  2  0  0  0  0  0  0  0  0  0
  -34.1850  -12.6610   -3.8860 C   0  0  0  0  0  0  0  0  0  0  0  0
  -35.1460  -12.9220   -3.2280 O   0  0  0  0  0  0  0  0  0  0  0  0
  -31.9850  -12.9360   -2.7600 C   0  0  0  0  0  0  0  0  0  0  0  0
  -32.5640  -13.6060   -1.2380 S   0  0  0  0  0  0  0  0  0  0  0  0
  -34.0290  -12.9770   -5.2440 N   0  0  0  0  0  0  0  0  0  0  0  0
  -35.2150  -13.5980   -5.8640 C   0  0  2  0  0  0  0  0  0  0  0  0
  -35.6940  -14.9780   -5.3950 C   0  0  0  0  0  0  0  0  0  0  0  0
  -34.9490  -15.6970   -4.7730 O   0  0  0  0  0  0  0  0  0  0  0  0
  -34.7950  -13.8070   -7.3010 C   0  0  0  0  0  0  0  0  0  0  0  0
  -33.7390  -12.8750   -7.5800 C   0  0  0  0  0  0  0  0  0  0  0  0
  -32.9700  -12.8050   -6.3560 C   0  0  0  0  0  0  0  0  0  0  0  0
  -36.9170  -15.3320   -5.8060 N   0  0  0  0  0  0  0  0  0  0  0  0
  -37.5650  -16.6040   -5.4750 C   0  0  2  0  0  0  0  0  0  0  0  0
  -36.7200  -17.8510   -5.7810 C   0  0  0  0  0  0  0  0  0  0  0  0
  -36.8030  -18.8410   -5.0580 O   0  0  0  0  0  0  0  0  0  0  0  0
  -38.9340  -16.6830   -6.2050 C   0  0  0  0  0  0  0  0  0  0  0  0
  -39.3150  -18.0280   -6.8210 C   0  0  0  0  0  0  0  0  0  0  0  0
  -40.6210  -17.9390   -7.6090 C   0  0  0  0  0  0  0  0  0  0  0  0
  -40.4060  -17.4410   -9.0340 C   0  0  0  0  0  0  0  0  0  0  0  0
  -41.6760  -17.3680   -9.8180 N   0  3  0  0  0  0  0  0  0  0  0  0
  -35.9390  -17.8100   -6.8570 N   0  0  0  0  0  0  0  0  0  0  0  0
  -35.1510  -18.9760   -7.2710 C   0  0  2  0  0  0  0  0  0  0  0  0
  -33.9960  -19.2580   -6.3030 C   0  0  0  0  0  0  0  0  0  0  0  0
  -33.5190  -20.3930   -6.2130 O   0  0  0  0  0  0  0  0  0  0  0  0
  -34.6440  -18.8210   -8.7100 C   0  0  0  0  0  0  0  0  0  0  0  0
  -33.6850  -17.6680   -8.9480 C   0  0  0  0  0  0  0  0  0  0  0  0
  -33.4940  -17.4310  -10.4350 C   0  0  0  0  0  0  0  0  0  0  0  0
  -32.4600  -16.4350  -10.7050 N   0  0  0  0  0  0  0  0  0  0  0  0
  -32.6570  -15.1180  -10.7440 C   0  0  0  0  0  3  0  0  0  0  0  0
  -33.8660  -14.5970  -10.5290 N   0  0  0  0  0  0  0  0  0  0  0  0
  -31.6340  -14.3120  -10.9980 N   0  0  0  0  0  0  0  0  0  0  0  0
  -33.5440  -18.2700   -5.5530 N   0  0  0  0  0  0  0  0  0  0  0  0
  -32.5200  -18.5300   -4.5450 C   0  0  2  0  0  0  0  0  0  0  0  0
  -32.9530  -19.2120   -3.2390 C   0  0  0  0  0  0  0  0  0  0  0  0
  -34.1070  -19.3200   -2.9810 O   0  0  0  0  0  0  0  0  0  0  0  0
  -31.7070  -17.2950   -4.2950 C   0  0  0  0  0  0  0  0  0  0  0  0
  -30.9790  -16.8460   -5.4970 C   0  0  0  0  0  0  0  0  0  0  0  0
  -31.5810  -16.0380   -6.4050 C   0  0  0  0  0  0  0  0  0  0  0  0
  -29.7210  -17.2810   -5.7500 C   0  0  0  0  0  0  0  0  0  0  0  0
  -30.9320  -15.6590   -7.5300 C   0  0  0  0  0  0  0  0  0  0  0  0
  -29.0610  -16.8950   -6.8640 C   0  0  0  0  0  0  0  0  0  0  0  0
  -29.6740  -16.0870   -7.7660 C   0  0  0  0  0  0  0  0  0  0  0  0
  -32.0710  -19.8740   -2.5080 N   0  0  0  0  0  0  0  0  0  0  0  0
  -32.4900  -20.8000   -1.4980 C   0  0  2  0  0  0  0  0  0  0  0  0
  -32.4480  -20.3370   -0.0410 C   0  0  0  0  0  0  0  0  0  0  0  0
  -32.8380  -21.0370    0.8350 O   0  0  0  0  0  0  0  0  0  0  0  0
  -31.8080  -22.1600   -1.6950 C   0  0  0  0  0  0  0  0  0  0  0  0
  -32.0650  -19.0840    0.1530 N   0  0  0  0  0  0  0  0  0  0  0  0
  -32.0900  -18.5290    1.4710 C   0  0  2  0  0  0  0  0  0  0  0  0
  -33.5130  -18.3660    1.9360 C   0  0  0  0  0  0  0  0  0  0  0  0
  -34.3570  -18.3190    1.1810 O   0  0  0  0  0  0  0  0  0  0  0  0
  -31.2860  -17.2650    1.5780 C   0  0  0  0  0  0  0  0  0  0  0  0
  -33.7160  -18.4030    3.2290 N   0  0  0  0  0  0  0  0  0  0  0  0
  -35.0100  -18.6450    3.7780 C   0  0  2  0  0  0  0  0  0  0  0  0
  -35.8770  -17.4850    3.4510 C   0  0  0  0  0  0  0  0  0  0  0  0
  -37.0660  -17.5450    3.4840 O   0  0  0  0  0  0  0  0  0  0  0  0
  -34.9270  -18.8750    5.2610 C   0  0  0  0  0  0  0  0  0  0  0  0
  -34.1740  -20.1510    5.5450 C   0  0  0  0  0  0  0  0  0  0  0  0
  -34.3110  -20.3960    7.0170 C   0  0  0  0  0  0  0  0  0  0  0  0
  -34.7030  -21.3350    4.8070 C   0  0  0  0  0  0  0  0  0  0  0  0
  -35.2360  -16.3770    3.2740 N   0  0  0  0  0  0  0  0  0  0  0  0
  -36.1140  -15.2320    3.0480 C   0  0  2  0  0  0  0  0  0  0  0  0
  -36.1120  -14.7050    1.6230 C   0  0  0  0  0  0  0  0  0  0  0  0
  -36.6010  -13.6390    1.3530 O   0  0  0  0  0  0  0  0  0  0  0  0
  -35.8990  -14.1420    4.0890 C   0  0  0  0  0  0  0  0  0  0  0  0
  -36.1240  -14.6200    5.4960 C   0  0  0  0  0  0  0  0  0  0  0  0
  -35.1120  -15.2040    6.2070 C   0  0  0  0  0  0  0  0  0  0  0  0
  -37.3550  -14.5020    6.0900 C   0  0  0  0  0  0  0  0  0  0  0  0
  -35.3150  -15.6550    7.4890 C   0  0  0  0  0  0  0  0  0  0  0  0
  -37.5700  -14.9430    7.3680 C   0  0  0  0  0  0  0  0  0  0  0  0
  -36.5550  -15.5290    8.0670 C   0  0  0  0  0  0  0  0  0  0  0  0
  -35.5870  -15.4940    0.7090 N   0  0  0  0  0  0  0  0  0  0  0  0
  -35.4890  -15.0790   -0.6470 C   0  0  2  0  0  0  0  0  0  0  0  0
  -36.8500  -15.0260   -1.2510 C   0  0  0  0  0  0  0  0  0  0  0  0
  -37.5800  -15.9540   -1.1010 O   0  5  0  0  0  0  0  0  0  0  0  0
  -34.6250  -16.0560   -1.3910 C   0  0  0  0  0  0  0  0  0  0  0  0
  -32.9170  -15.7990   -0.9260 S   0  0  0  0  0  0  0  0  0  0  0  0
  -37.1670  -14.0570   -1.8660 O   0  0  0  0  0  0  0  0  0  0  0  0
  -32.4844  -10.4885   -2.0158 H   0  0  0  0  0  0  0  0  0  0  0  0
  -33.8209  -11.3483   -1.5866 H   0  0  0  0  0  0  0  0  0  0  0  0
  -33.9114  -10.2359   -2.7965 H   0  0  0  0  0  0  0  0  0  0  0  0
  -32.4888  -11.4281   -4.1548 H   0  0  0  0  0  0  0  0  0  0  0  0
  -31.0242  -12.4283   -2.5894 H   0  0  0  0  0  0  0  0  0  0  0  0
  -31.8451  -13.7519   -3.4843 H   0  0  0  0  0  0  0  0  0  0  0  0
  -36.0577  -12.8954   -5.7849 H   0  0  0  0  0  0  0  0  0  0  0  0
  -35.6466  -13.6221   -7.9722 H   0  0  0  0  0  0  0  0  0  0  0  0
  -34.4343  -14.8367   -7.4413 H   0  0  0  0  0  0  0  0  0  0  0  0
  -34.1516  -11.8876   -7.8346 H   0  0  0  0  0  0  0  0  0  0  0  0
  -33.1135  -13.2360   -8.4097 H   0  0  0  0  0  0  0  0  0  0  0  0
  -32.2244  -13.6127   -6.3152 H   0  0  0  0  0  0  0  0  0  0  0  0
  -32.4629  -11.8329   -6.2671 H   0  0  0  0  0  0  0  0  0  0  0  0
  -37.4227  -14.6854   -6.3772 H   0  0  0  0  0  0  0  0  0  0  0  0
  -37.7550  -16.6017   -4.3916 H   0  0  0  0  0  0  0  0  0  0  0  0
  -38.9216  -15.9388   -7.0149 H   0  0  0  0  0  0  0  0  0  0  0  0
  -39.7144  -16.4189   -5.4762 H   0  0  0  0  0  0  0  0  0  0  0  0
  -39.4343  -18.7679   -6.0158 H   0  0  0  0  0  0  0  0  0  0  0  0
  -38.5109  -18.3502   -7.4989 H   0  0  0  0  0  0  0  0  0  0  0  0
  -41.2999  -17.2456   -7.0910 H   0  0  0  0  0  0  0  0  0  0  0  0
  -41.0784  -18.9386   -7.6492 H   0  0  0  0  0  0  0  0  0  0  0  0
  -39.7155  -18.1273   -9.5461 H   0  0  0  0  0  0  0  0  0  0  0  0
  -39.9603  -16.4362   -8.9920 H   0  0  0  0  0  0  0  0  0  0  0  0
  -41.4778  -17.0345  -10.7484 H   0  0  0  0  0  0  0  0  0  0  0  0
  -42.3156  -16.7353   -9.3634 H   0  0  0  0  0  0  0  0  0  0  0  0
  -42.0913  -18.2849   -9.8712 H   0  0  0  0  0  0  0  0  0  0  0  0
  -35.8881  -16.9680   -7.3941 H   0  0  0  0  0  0  0  0  0  0  0  0
  -35.8195  -19.8492   -7.2480 H   0  0  0  0  0  0  0  0  0  0  0  0
  -35.5174  -18.6747   -9.3625 H   0  0  0  0  0  0  0  0  0  0  0  0
  -34.1294  -19.7521   -8.9895 H   0  0  0  0  0  0  0  0  0  0  0  0
  -32.7127  -17.9063   -8.4920 H   0  0  0  0  0  0  0  0  0  0  0  0
  -34.0932  -16.7569   -8.4862 H   0  0  0  0  0  0  0  0  0  0  0  0
  -34.4446  -17.0802  -10.8631 H   0  0  0  0  0  0  0  0  0  0  0  0
  -33.2054  -18.3797  -10.9111 H   0  0  0  0  0  0  0  0  0  0  0  0
  -31.5043  -16.7776  -10.8787 H   0  0  0  0  0  0  0  0  0  0  0  0
  -34.0004  -13.5764  -10.5629 H   0  0  0  0  0  0  0  0  0  0  0  0
  -34.6651  -15.2153  -10.3290 H   0  0  0  0  0  0  0  0  0  0  0  0
  -30.6971  -14.7060  -11.1652 H   0  0  0  0  0  0  0  0  0  0  0  0
  -31.7768  -13.2924  -11.0280 H   0  0  0  0  0  0  0  0  0  0  0  0
  -33.9025  -17.3445   -5.6751 H   0  0  0  0  0  0  0  0  0  0  0  0
  -31.8368  -19.2508   -5.0180 H   0  0  0  0  0  0  0  0  0  0  0  0
  -30.9776  -17.5076   -3.4996 H   0  0  0  0  0  0  0  0  0  0  0  0
  -32.3807  -16.4890   -3.9689 H   0  0  0  0  0  0  0  0  0  0  0  0
  -32.5929  -15.6922   -6.2274 H   0  0  0  0  0  0  0  0  0  0  0  0
  -29.2363  -17.9493   -5.0475 H   0  0  0  0  0  0  0  0  0  0  0  0
  -31.4243  -15.0092   -8.2445 H   0  0  0  0  0  0  0  0  0  0  0  0
  -28.0446  -17.2298   -7.0369 H   0  0  0  0  0  0  0  0  0  0  0  0
  -29.1565  -15.7874   -8.6701 H   0  0  0  0  0  0  0  0  0  0  0  0
  -31.0943  -19.7254   -2.6632 H   0  0  0  0  0  0  0  0  0  0  0  0
  -33.5580  -20.9686   -1.7002 H   0  0  0  0  0  0  0  0  0  0  0  0
  -32.1427  -22.8550   -0.9108 H   0  0  0  0  0  0  0  0  0  0  0  0
  -30.7168  -22.0354   -1.6332 H   0  0  0  0  0  0  0  0  0  0  0  0
  -32.0755  -22.5648   -2.6822 H   0  0  0  0  0  0  0  0  0  0  0  0
  -31.7593  -18.5277   -0.6197 H   0  0  0  0  0  0  0  0  0  0  0  0
  -31.6141  -19.2608    2.1403 H   0  0  0  0  0  0  0  0  0  0  0  0
  -31.3395  -16.8826    2.6080 H   0  0  0  0  0  0  0  0  0  0  0  0
  -31.6920  -16.5125    0.8860 H   0  0  0  0  0  0  0  0  0  0  0  0
  -30.2377  -17.4741    1.3185 H   0  0  0  0  0  0  0  0  0  0  0  0
  -32.9438  -18.2578    3.8476 H   0  0  0  0  0  0  0  0  0  0  0  0
  -35.4335  -19.5469    3.3119 H   0  0  0  0  0  0  0  0  0  0  0  0
  -35.9432  -18.9522    5.6749 H   0  0  0  0  0  0  0  0  0  0  0  0
  -34.4025  -18.0304    5.7316 H   0  0  0  0  0  0  0  0  0  0  0  0
  -33.1154  -20.0140    5.2794 H   0  0  0  0  0  0  0  0  0  0  0  0
  -33.7783  -21.3200    7.2860 H   0  0  0  0  0  0  0  0  0  0  0  0
  -35.3756  -20.4984    7.2742 H   0  0  0  0  0  0  0  0  0  0  0  0
  -33.8796  -19.5495    7.5713 H   0  0  0  0  0  0  0  0  0  0  0  0
  -34.6070  -21.1652    3.7244 H   0  0  0  0  0  0  0  0  0  0  0  0
  -35.7627  -21.4828    5.0623 H   0  0  0  0  0  0  0  0  0  0  0  0
  -34.1293  -22.2298    5.0900 H   0  0  0  0  0  0  0  0  0  0  0  0
  -34.2384  -16.3102    3.2902 H   0  0  0  0  0  0  0  0  0  0  0  0
  -37.1344  -15.6074    3.2152 H   0  0  0  0  0  0  0  0  0  0  0  0
  -36.5979  -13.3180    3.8830 H   0  0  0  0  0  0  0  0  0  0  0  0
  -34.8652  -13.7758    4.0045 H   0  0  0  0  0  0  0  0  0  0  0  0
  -34.1342  -15.3128    5.7519 H   0  0  0  0  0  0  0  0  0  0  0  0
  -38.1718  -14.0516    5.5376 H   0  0  0  0  0  0  0  0  0  0  0  0
  -34.5002  -16.1083    8.0420 H   0  0  0  0  0  0  0  0  0  0  0  0
  -38.5462  -14.8267    7.8246 H   0  0  0  0  0  0  0  0  0  0  0  0
  -36.7263  -15.8933    9.0735 H   0  0  0  0  0  0  0  0  0  0  0  0
  -35.2522  -16.3987    0.9727 H   0  0  0  0  0  0  0  0  0  0  0  0
  -35.0327  -14.0792   -0.6937 H   0  0  0  0  0  0  0  0  0  0  0  0
  -34.7396  -15.8990   -2.4737 H   0  0  0  0  0  0  0  0  0  0  0  0
  -34.9258  -17.0827   -1.1355 H   0  0  0  0  0  0  0  0  0  0  0  0
  1  2  1  0  0  0  0
  1 81  1  0  0  0  0
  1 82  1  0  0  0  0
  1 83  1  0  0  0  0
  2  3  1  0  0  0  0
  2  5  1  0  0  0  0
  2 84  1  6  0  0  0
  3  4  2  0  0  0  0
  3  7  1  0  0  0  0
  5  6  1  0  0  0  0
  5 85  1  0  0  0  0
  5 86  1  0  0  0  0
  6 79  1  0  0  0  0
  7  8  1  0  0  0  0
  7 13  1  0  0  0  0
  8  9  1  0  0  0  0
  8 11  1  0  0  0  0
  8 87  1  1  0  0  0
  9 10  2  0  0  0  0
  9 14  1  0  0  0  0
 11 12  1  0  0  0  0
 11 88  1  0  0  0  0
 11 89  1  0  0  0  0
 12 13  1  0  0  0  0
 12 90  1  0  0  0  0
 12 91  1  0  0  0  0
 13 92  1  0  0  0  0
 13 93  1  0  0  0  0
 14 15  1  0  0  0  0
 14 94  1  0  0  0  0
 15 16  1  0  0  0  0
 15 18  1  0  0  0  0
 15 95  1  1  0  0  0
 16 17  2  0  0  0  0
 16 23  1  0  0  0  0
 18 19  1  0  0  0  0
 18 96  1  0  0  0  0
 18 97  1  0  0  0  0
 19 20  1  0  0  0  0
 19 98  1  0  0  0  0
 19 99  1  0  0  0  0
 20 21  1  0  0  0  0
 20100  1  0  0  0  0
 20101  1  0  0  0  0
 21 22  1  0  0  0  0
 21102  1  0  0  0  0
 21103  1  0  0  0  0
 22104  1  0  0  0  0
 22105  1  0  0  0  0
 22106  1  0  0  0  0
 23 24  1  0  0  0  0
 23107  1  0  0  0  0
 24 25  1  0  0  0  0
 24 27  1  0  0  0  0
 24108  1  1  0  0  0
 25 26  2  0  0  0  0
 25 34  1  0  0  0  0
 27 28  1  0  0  0  0
 27109  1  0  0  0  0
 27110  1  0  0  0  0
 28 29  1  0  0  0  0
 28111  1  0  0  0  0
 28112  1  0  0  0  0
 29 30  1  0  0  0  0
 29113  1  0  0  0  0
 29114  1  0  0  0  0
 30 31  1  0  0  0  0
 30115  1  0  0  0  0
 31 32  1  0  0  0  0
 31 33  1  0  0  0  0
 32116  1  0  0  0  0
 32117  1  0  0  0  0
 33118  1  0  0  0  0
 33119  1  0  0  0  0
 34 35  1  0  0  0  0
 34120  1  0  0  0  0
 35 36  1  0  0  0  0
 35 38  1  0  0  0  0
 35121  1  6  0  0  0
 36 37  2  0  0  0  0
 36 45  1  0  0  0  0
 38 39  1  0  0  0  0
 38122  1  0  0  0  0
 38123  1  0  0  0  0
 39 40  2  0  0  0  0
 39 41  1  0  0  0  0
 40 42  1  0  0  0  0
 40124  1  0  0  0  0
 41 43  2  0  0  0  0
 41125  1  0  0  0  0
 42 44  2  0  0  0  0
 42126  1  0  0  0  0
 43 44  1  0  0  0  0
 43127  1  0  0  0  0
 44128  1  0  0  0  0
 45 46  1  0  0  0  0
 45129  1  0  0  0  0
 46 47  1  0  0  0  0
 46 49  1  0  0  0  0
 46130  1  6  0  0  0
 47 48  2  0  0  0  0
 47 50  1  0  0  0  0
 49131  1  0  0  0  0
 49132  1  0  0  0  0
 49133  1  0  0  0  0
 50 51  1  0  0  0  0
 50134  1  0  0  0  0
 51 52  1  0  0  0  0
 51 54  1  0  0  0  0
 51135  1  1  0  0  0
 52 53  2  0  0  0  0
 52 55  1  0  0  0  0
 54136  1  0  0  0  0
 54137  1  0  0  0  0
 54138  1  0  0  0  0
 55 56  1  0  0  0  0
 55139  1  0  0  0  0
 56 57  1  0  0  0  0
 56 59  1  0  0  0  0
 56140  1  6  0  0  0
 57 58  2  0  0  0  0
 57 63  1  0  0  0  0
 59 60  1  0  0  0  0
 59141  1  0  0  0  0
 59142  1  0  0  0  0
 60 61  1  0  0  0  0
 60 62  1  0  0  0  0
 60143  1  0  0  0  0
 61144  1  0  0  0  0
 61145  1  0  0  0  0
 61146  1  0  0  0  0
 62147  1  0  0  0  0
 62148  1  0  0  0  0
 62149  1  0  0  0  0
 63 64  1  0  0  0  0
 63150  1  0  0  0  0
 64 65  1  0  0  0  0
 64 67  1  0  0  0  0
 64151  1  1  0  0  0
 65 66  2  0  0  0  0
 65 74  1  0  0  0  0
 67 68  1  0  0  0  0
 67152  1  0  0  0  0
 67153  1  0  0  0  0
 68 69  2  0  0  0  0
 68 70  1  0  0  0  0
 69 71  1  0  0  0  0
 69154  1  0  0  0  0
 70 72  2  0  0  0  0
 70155  1  0  0  0  0
 71 73  2  0  0  0  0
 71156  1  0  0  0  0
 72 73  1  0  0  0  0
 72157  1  0  0  0  0
 73158  1  0  0  0  0
 74 75  1  0  0  0  0
 74159  1  0  0  0  0
 75 76  1  0  0  0  0
 75 78  1  0  0  0  0
 75160  1  6  0  0  0
 76 77  1  0  0  0  0
 76 80  2  0  0  0  0
 78 79  1  0  0  0  0
 78161  1  0  0  0  0
 78162  1  0  0  0  0
M  CHG  3   1   1  22   1  77  -1
M  END
