4zjj_ligand
 OpenBabel08222323353D

 61 64  0  0  1  0  0  0  0  0999 V2000
   13.4030   46.4810   47.1040 C   0  0  0  0  0  0  0  0  0  0  0  0
   11.3400   45.3200   46.2940 C   0  0  0  0  0  0  0  0  0  0  0  0
   10.8480   45.1040   47.5840 C   0  0  0  0  0  0  0  0  0  0  0  0
   14.1050   44.7730   39.7490 C   0  0  0  0  0  0  0  0  0  0  0  0
   13.1240   43.5600   41.6050 C   0  0  0  0  0  0  0  0  0  0  0  0
   15.6010   43.5640   41.3550 C   0  0  0  0  0  0  0  0  0  0  0  0
   18.1490   43.6830   40.8100 C   0  0  0  0  0  0  0  0  0  0  0  0
   18.5370   44.2620   42.1630 C   0  0  0  0  0  0  0  0  0  0  0  0
   18.9780   44.3300   39.7120 C   0  0  0  0  0  0  0  0  0  0  0  0
   18.3940   42.1860   40.8030 C   0  0  0  0  0  0  0  0  0  0  0  0
   11.6070   47.2040   43.9070 C   0  0  0  0  0  0  0  0  0  0  0  0
   11.1130   48.2910   43.1820 C   0  0  0  0  0  0  0  0  0  0  0  0
   11.0480   49.5370   43.7690 C   0  0  0  0  0  0  0  0  0  0  0  0
   11.4700   49.7460   45.0650 C   0  0  0  0  0  0  0  0  0  0  0  0
   11.9720   48.6760   45.7940 C   0  0  0  0  0  0  0  0  0  0  0  0
   12.0290   47.3930   45.2420 C   0  0  0  0  0  0  0  0  0  0  0  0
   10.3850   50.8690   42.8560 Cl  0  0  0  0  0  0  0  0  0  0  0  0
   12.3870   46.2770   46.0620 N   0  0  0  0  0  0  0  0  0  0  0  0
   14.3330   45.3000   47.2820 C   0  0  0  0  0  0  0  0  0  0  0  0
   11.6120   45.8510   43.2950 C   0  0  0  0  0  0  0  0  0  0  0  0
   11.2130   44.7280   43.8860 N   0  0  0  0  0  0  0  0  0  0  0  0
   10.7180   44.6800   45.2030 C   0  0  0  0  0  0  0  0  0  0  0  0
    9.5810   43.8940   45.4180 C   0  0  0  0  0  0  0  0  0  0  0  0
    9.1300   43.7340   46.7040 C   0  0  0  0  0  0  0  0  0  0  0  0
    8.0380   42.9410   46.9090 F   0  0  0  0  0  0  0  0  0  0  0  0
    9.7380   44.3070   47.7940 C   0  0  0  0  0  0  0  0  0  0  0  0
   12.0710   45.8040   42.0110 N   0  0  0  0  0  0  0  0  0  0  0  0
   12.1370   44.6310   41.1370 C   0  0  1  0  0  0  0  0  0  0  0  0
   14.3600   43.9270   40.9250 N   0  0  0  0  0  0  0  0  0  0  0  0
   12.5900   44.9570   39.7510 C   0  0  0  0  0  0  0  0  0  0  0  0
   15.7630   42.9370   42.3970 O   0  0  0  0  0  0  0  0  0  0  0  0
   16.7150   43.9430   40.5510 N   0  0  0  0  0  0  0  0  0  0  0  0
   12.8896   46.6665   48.0590 H   0  0  0  0  0  0  0  0  0  0  0  0
   14.0057   47.3609   46.8347 H   0  0  0  0  0  0  0  0  0  0  0  0
   11.3426   45.5669   48.4302 H   0  0  0  0  0  0  0  0  0  0  0  0
   14.4372   44.2727   38.8274 H   0  0  0  0  0  0  0  0  0  0  0  0
   14.6170   45.7418   39.8453 H   0  0  0  0  0  0  0  0  0  0  0  0
   12.7902   42.5565   41.3023 H   0  0  0  0  0  0  0  0  0  0  0  0
   13.2506   43.5904   42.6973 H   0  0  0  0  0  0  0  0  0  0  0  0
   19.6029   44.0675   42.3530 H   0  0  0  0  0  0  0  0  0  0  0  0
   17.9320   43.7899   42.9510 H   0  0  0  0  0  0  0  0  0  0  0  0
   18.3567   45.3471   42.1628 H   0  0  0  0  0  0  0  0  0  0  0  0
   18.6914   43.9061   38.7382 H   0  0  0  0  0  0  0  0  0  0  0  0
   20.0451   44.1369   39.8962 H   0  0  0  0  0  0  0  0  0  0  0  0
   18.7972   45.4150   39.7071 H   0  0  0  0  0  0  0  0  0  0  0  0
   17.7962   41.7129   41.5960 H   0  0  0  0  0  0  0  0  0  0  0  0
   19.4613   41.9883   40.9811 H   0  0  0  0  0  0  0  0  0  0  0  0
   18.1021   41.7712   39.8269 H   0  0  0  0  0  0  0  0  0  0  0  0
   10.7811   48.1551   42.1590 H   0  0  0  0  0  0  0  0  0  0  0  0
   11.4106   50.7331   45.5091 H   0  0  0  0  0  0  0  0  0  0  0  0
   12.3249   48.8381   46.8061 H   0  0  0  0  0  0  0  0  0  0  0  0
   15.0626   45.5240   48.0742 H   0  0  0  0  0  0  0  0  0  0  0  0
   14.8642   45.1061   46.3385 H   0  0  0  0  0  0  0  0  0  0  0  0
   13.7481   44.4117   47.5627 H   0  0  0  0  0  0  0  0  0  0  0  0
    9.0680   43.4222   44.5878 H   0  0  0  0  0  0  0  0  0  0  0  0
    9.3568   44.1385   48.7947 H   0  0  0  0  0  0  0  0  0  0  0  0
   12.4084   46.6918   41.6124 H   0  0  0  0  0  0  0  0  0  0  0  0
   11.1274   44.1963   41.0960 H   0  0  0  0  0  0  0  0  0  0  0  0
   12.1213   44.2757   39.0257 H   0  0  0  0  0  0  0  0  0  0  0  0
   12.3309   45.9958   39.4987 H   0  0  0  0  0  0  0  0  0  0  0  0
   16.5026   44.4442   39.7121 H   0  0  0  0  0  0  0  0  0  0  0  0
  1 19  1  0  0  0  0
  1 33  1  0  0  0  0
  1 34  1  0  0  0  0
  2  3  2  0  0  0  0
  2 18  1  0  0  0  0
  3 26  1  0  0  0  0
  3 35  1  0  0  0  0
  4 30  1  0  0  0  0
  4 36  1  0  0  0  0
  4 37  1  0  0  0  0
  5 29  1  0  0  0  0
  5 38  1  0  0  0  0
  5 39  1  0  0  0  0
  6 31  2  0  0  0  0
  6 32  1  0  0  0  0
  7  8  1  0  0  0  0
  7  9  1  0  0  0  0
  7 10  1  0  0  0  0
  8 40  1  0  0  0  0
  8 41  1  0  0  0  0
  8 42  1  0  0  0  0
  9 43  1  0  0  0  0
  9 44  1  0  0  0  0
  9 45  1  0  0  0  0
 10 46  1  0  0  0  0
 10 47  1  0  0  0  0
 10 48  1  0  0  0  0
 11 12  2  0  0  0  0
 11 16  1  0  0  0  0
 12 13  1  0  0  0  0
 12 49  1  0  0  0  0
 13 14  2  0  0  0  0
 13 17  1  0  0  0  0
 14 50  1  0  0  0  0
 15 14  1  0  0  0  0
 15 51  1  0  0  0  0
 16 15  2  0  0  0  0
 16 18  1  0  0  0  0
 18  1  1  0  0  0  0
 19 52  1  0  0  0  0
 19 53  1  0  0  0  0
 19 54  1  0  0  0  0
 20 11  1  0  0  0  0
 20 21  2  0  0  0  0
 21 22  1  0  0  0  0
 22  2  1  0  0  0  0
 22 23  2  0  0  0  0
 23 24  1  0  0  0  0
 23 55  1  0  0  0  0
 24 25  1  0  0  0  0
 24 26  2  0  0  0  0
 26 56  1  0  0  0  0
 27 20  1  0  0  0  0
 27 28  1  0  0  0  0
 27 57  1  0  0  0  0
 28  5  1  0  0  0  0
 28 30  1  0  0  0  0
 28 58  1  6  0  0  0
 29  4  1  0  0  0  0
 29  6  1  0  0  0  0
 30 59  1  0  0  0  0
 30 60  1  0  0  0  0
 32  7  1  0  0  0  0
 32 61  1  0  0  0  0
M  END
