4zk5_ligand
 OpenBabel08222323353D

 48 52  0  0  1  0  0  0  0  0999 V2000
  -21.7100    8.4090  -15.8860 C   0  0  0  0  0  0  0  0  0  0  0  0
  -20.7060    9.3200  -16.0990 C   0  0  0  0  0  0  0  0  0  0  0  0
  -20.0920    9.4870  -17.3110 C   0  0  0  0  0  0  0  0  0  0  0  0
  -24.9430    4.4810  -16.1380 C   0  0  0  0  0  0  0  0  0  0  0  0
  -23.1000    6.4980  -16.6950 C   0  0  0  0  0  0  0  0  0  0  0  0
  -23.3130    5.4830  -17.6280 C   0  0  0  0  0  0  0  0  0  0  0  0
  -24.2070    4.4860  -17.3520 C   0  0  0  0  0  0  0  0  0  0  0  0
  -25.8990    3.4760  -15.7720 C   0  0  0  0  0  0  0  0  0  0  0  0
  -26.5560    3.6950  -14.5570 C   0  0  0  0  0  0  0  0  0  0  0  0
  -22.1380    7.6010  -16.9410 C   0  0  0  0  0  0  0  0  0  0  0  0
  -20.5210    8.7000  -18.3680 C   0  0  0  0  0  0  0  0  0  0  0  0
  -21.5320    7.7690  -18.1870 C   0  0  0  0  0  0  0  0  0  0  0  0
  -20.3080   10.0960  -15.0520 F   0  0  0  0  0  0  0  0  0  0  0  0
  -26.3880    4.7300  -13.7260 N   0  0  0  0  0  0  0  0  0  0  0  0
  -25.4800    5.6920  -14.0470 C   0  0  0  0  0  0  0  0  0  0  0  0
  -24.7030    5.5830  -15.2620 C   0  0  0  0  0  0  0  0  0  0  0  0
  -23.7800    6.5490  -15.5530 N   0  0  0  0  0  0  0  0  0  0  0  0
  -25.3560    6.7730  -13.2560 N   0  0  0  0  0  0  0  0  0  0  0  0
  -26.1850    2.2600  -16.6130 C   0  0  0  0  0  0  0  0  0  0  0  0
  -25.5500    2.0090  -17.6350 O   0  0  0  0  0  0  0  0  0  0  0  0
  -27.1840    1.4770  -16.1690 N   0  0  0  0  0  0  0  0  0  0  0  0
  -27.7190    0.3520  -16.9340 C   0  0  1  0  0  0  0  0  0  0  0  0
  -26.9030   -0.9720  -16.7770 C   0  0  0  0  0  0  0  0  0  0  0  0
  -28.0040   -1.5260  -15.9420 N   0  0  0  0  0  0  0  0  0  0  0  0
  -28.9160   -0.3810  -16.1950 C   0  0  0  0  0  0  0  0  0  0  0  0
  -27.9290   -2.5430  -15.0550 C   0  0  0  0  0  0  0  0  0  0  0  0
  -26.8600   -3.0490  -14.7500 O   0  0  0  0  0  0  0  0  0  0  0  0
  -29.2410   -3.0430  -14.4680 C   0  0  1  0  0  0  0  0  0  0  0  0
  -29.2490   -4.2300  -13.5380 C   0  0  0  0  0  0  0  0  0  0  0  0
  -29.3920   -2.8700  -12.9780 C   0  0  0  0  0  0  0  0  0  0  0  0
  -22.1667    8.3176  -14.9072 H   0  0  0  0  0  0  0  0  0  0  0  0
  -19.2960   10.2114  -17.4398 H   0  0  0  0  0  0  0  0  0  0  0  0
  -22.7722    5.4847  -18.5675 H   0  0  0  0  0  0  0  0  0  0  0  0
  -24.3559    3.6880  -18.0704 H   0  0  0  0  0  0  0  0  0  0  0  0
  -27.2791    2.9456  -14.2562 H   0  0  0  0  0  0  0  0  0  0  0  0
  -20.0625    8.8133  -19.3437 H   0  0  0  0  0  0  0  0  0  0  0  0
  -21.8565    7.1629  -19.0251 H   0  0  0  0  0  0  0  0  0  0  0  0
  -24.6720    7.5066  -13.4900 H   0  0  0  0  0  0  0  0  0  0  0  0
  -25.9451    6.8671  -12.4163 H   0  0  0  0  0  0  0  0  0  0  0  0
  -27.5801    1.6738  -15.2721 H   0  0  0  0  0  0  0  0  0  0  0  0
  -27.9199    0.6571  -17.9716 H   0  0  0  0  0  0  0  0  0  0  0  0
  -25.9474   -0.8540  -16.2451 H   0  0  0  0  0  0  0  0  0  0  0  0
  -26.7337   -1.5135  -17.7194 H   0  0  0  0  0  0  0  0  0  0  0  0
  -29.7741   -0.6168  -16.8415 H   0  0  0  0  0  0  0  0  0  0  0  0
  -29.2703    0.1281  -15.2866 H   0  0  0  0  0  0  0  0  0  0  0  0
  -30.0743   -2.8707  -15.1650 H   0  0  0  0  0  0  0  0  0  0  0  0
  -29.1913   -5.3071  -13.3880 H   0  0  0  0  0  0  0  0  0  0  0  0
  -29.5162   -2.2170  -12.1154 H   0  0  0  0  0  0  0  0  0  0  0  0
  1  2  2  0  0  0  0
  1 31  1  0  0  0  0
  2  3  1  0  0  0  0
  2 13  1  0  0  0  0
  3 11  2  0  0  0  0
  3 32  1  0  0  0  0
  4  8  1  0  0  0  0
  4 16  1  0  0  0  0
  5 10  1  0  0  0  0
  5 17  1  0  0  0  0
  6  5  2  0  0  0  0
  6  7  1  0  0  0  0
  6 33  1  0  0  0  0
  7  4  2  0  0  0  0
  7 34  1  0  0  0  0
  8  9  2  0  0  0  0
  8 19  1  0  0  0  0
  9 14  1  0  0  0  0
  9 35  1  0  0  0  0
 10  1  1  0  0  0  0
 10 12  2  0  0  0  0
 11 12  1  0  0  0  0
 11 36  1  0  0  0  0
 12 37  1  0  0  0  0
 14 15  2  0  0  0  0
 15 16  1  0  0  0  0
 15 18  1  0  0  0  0
 16 17  2  0  0  0  0
 18 38  1  0  0  0  0
 18 39  1  0  0  0  0
 19 20  2  0  0  0  0
 19 21  1  0  0  0  0
 21 22  1  0  0  0  0
 21 40  1  0  0  0  0
 22 23  1  0  0  0  0
 22 25  1  0  0  0  0
 22 41  1  6  0  0  0
 23 24  1  0  0  0  0
 23 42  1  0  0  0  0
 23 43  1  0  0  0  0
 24 25  1  0  0  0  0
 24 26  1  0  0  0  0
 25 44  1  0  0  0  0
 25 45  1  0  0  0  0
 26 27  2  0  0  0  0
 26 28  1  0  0  0  0
 28 29  1  0  0  0  0
 28 30  1  0  0  0  0
 28 46  1  6  0  0  0
 29 30  2  0  0  0  0
 29 47  1  0  0  0  0
 30 48  1  0  0  0  0
M  END
