4zom_ligand
 OpenBabel08222323353D

 65 69  0  0  1  0  0  0  0  0999 V2000
   45.7510  169.7330   -0.0140 C   0  0  0  0  0  0  0  0  0  0  0  0
   44.1660  171.2850    1.0590 C   0  0  0  0  0  0  0  0  0  0  0  0
   45.0540  175.5440    1.3240 O   0  0  0  0  0  0  0  0  0  0  0  0
   43.8680  175.6190    1.3190 C   0  0  0  0  0  0  0  0  0  0  0  0
   43.3020  177.0740    1.3520 C   0  0  0  0  0  0  0  0  0  0  0  0
   42.9860  174.5910    1.2500 N   0  0  0  0  0  0  0  0  0  0  0  0
   43.2940  173.2520    1.1270 C   0  0  0  0  0  0  0  0  0  0  0  0
   44.4670  172.5720    1.1630 C   0  0  0  0  0  0  0  0  0  0  0  0
   42.2430  172.4410    0.9090 N   0  0  0  0  0  0  0  0  0  0  0  0
   42.8960  171.2220    0.8410 N   0  0  0  0  0  0  0  0  0  0  0  0
   42.0850  170.0280    0.5950 C   0  0  0  0  0  0  0  0  0  0  0  0
   41.6390  170.2380   -0.7620 C   0  0  0  0  0  0  0  0  0  0  0  0
   40.8630  170.0450    1.5410 C   0  0  0  0  0  0  0  0  0  0  0  0
   45.0980  170.0870    1.0860 C   0  0  0  0  0  0  0  0  0  0  0  0
   46.6190  168.6390   -0.0900 C   0  0  0  0  0  0  0  0  0  0  0  0
   47.1440  168.3170   -1.3010 N   0  0  0  0  0  0  0  0  0  0  0  0
   47.3720  166.9080   -1.7410 C   0  0  0  0  0  0  0  0  0  0  0  0
   48.0670  167.1650   -3.1370 C   0  0  2  0  0  0  0  0  0  0  0  0
   49.3610  167.9930   -2.9640 C   0  0  0  0  0  0  0  0  0  0  0  0
   48.0660  168.6340   -3.4630 C   0  0  2  0  0  0  0  0  0  0  0  0
   47.2250  169.3310   -2.4010 C   0  0  0  0  0  0  0  0  0  0  0  0
   45.2280  169.4000    2.2600 C   0  0  0  0  0  0  0  0  0  0  0  0
   46.0360  168.2430    2.2610 C   0  0  0  0  0  0  0  0  0  0  0  0
   46.7540  167.8320    1.1040 C   0  0  0  0  0  0  0  0  0  0  0  0
   47.6460  166.8320    1.2360 N   0  0  0  0  0  0  0  0  0  0  0  0
   49.0340  167.1640    1.0260 C   0  0  0  0  0  0  0  0  0  0  0  0
   47.1840  165.6640    1.5740 C   0  0  0  0  0  0  0  0  0  0  0  0
   45.9640  165.3900    1.4460 O   0  0  0  0  0  0  0  0  0  0  0  0
   48.1790  164.6800    2.1380 C   0  0  0  0  0  0  0  0  0  0  0  0
   48.6030  164.6310    3.5550 C   0  0  0  0  0  0  0  0  0  0  0  0
   48.0040  165.4570    4.4060 F   0  0  0  0  0  0  0  0  0  0  0  0
   49.5260  163.7000    3.9790 C   0  0  0  0  0  0  0  0  0  0  0  0
   50.1440  162.8440    3.0520 C   0  0  0  0  0  0  0  0  0  0  0  0
   49.7940  162.8460    1.7310 C   0  0  0  0  0  0  0  0  0  0  0  0
   48.8230  163.7360    1.2950 C   0  0  0  0  0  0  0  0  0  0  0  0
   48.3350  163.9100   -0.3760 Cl  0  0  0  0  0  0  0  0  0  0  0  0
   45.6025  170.3280   -0.9078 H   0  0  0  0  0  0  0  0  0  0  0  0
   42.2026  177.0400    1.3448 H   0  0  0  0  0  0  0  0  0  0  0  0
   43.6575  177.6259    0.4694 H   0  0  0  0  0  0  0  0  0  0  0  0
   43.6471  177.5811    2.2651 H   0  0  0  0  0  0  0  0  0  0  0  0
   42.0153  174.8274    1.2925 H   0  0  0  0  0  0  0  0  0  0  0  0
   45.4636  173.0004    1.2588 H   0  0  0  0  0  0  0  0  0  0  0  0
   42.6604  169.0975    0.7089 H   0  0  0  0  0  0  0  0  0  0  0  0
   41.0071  169.3938   -1.0750 H   0  0  0  0  0  0  0  0  0  0  0  0
   42.5116  170.3095   -1.4279 H   0  0  0  0  0  0  0  0  0  0  0  0
   41.0584  171.1707   -0.8170 H   0  0  0  0  0  0  0  0  0  0  0  0
   40.2484  169.1505    1.3621 H   0  0  0  0  0  0  0  0  0  0  0  0
   40.2629  170.9466    1.3487 H   0  0  0  0  0  0  0  0  0  0  0  0
   41.2079  170.0499    2.5855 H   0  0  0  0  0  0  0  0  0  0  0  0
   46.4265  166.3567   -1.8512 H   0  0  0  0  0  0  0  0  0  0  0  0
   48.0338  166.3664   -1.0492 H   0  0  0  0  0  0  0  0  0  0  0  0
   47.9371  166.3617   -3.8771 H   0  0  0  0  0  0  0  0  0  0  0  0
   50.2076  167.8476   -3.6512 H   0  0  0  0  0  0  0  0  0  0  0  0
   49.7409  168.2231   -1.9577 H   0  0  0  0  0  0  0  0  0  0  0  0
   47.9685  169.0596   -4.4726 H   0  0  0  0  0  0  0  0  0  0  0  0
   47.7156  170.2517   -2.0522 H   0  0  0  0  0  0  0  0  0  0  0  0
   46.2241  169.5728   -2.7879 H   0  0  0  0  0  0  0  0  0  0  0  0
   44.7266  169.7330    3.1615 H   0  0  0  0  0  0  0  0  0  0  0  0
   46.1114  167.6523    3.1668 H   0  0  0  0  0  0  0  0  0  0  0  0
   49.1193  168.2252    0.7492 H   0  0  0  0  0  0  0  0  0  0  0  0
   49.4419  166.5402    0.2170 H   0  0  0  0  0  0  0  0  0  0  0  0
   49.5992  166.9799    1.9516 H   0  0  0  0  0  0  0  0  0  0  0  0
   49.7762  163.6277    5.0313 H   0  0  0  0  0  0  0  0  0  0  0  0
   50.9174  162.1653    3.3930 H   0  0  0  0  0  0  0  0  0  0  0  0
   50.2675  162.1631    1.0349 H   0  0  0  0  0  0  0  0  0  0  0  0
  1 15  1  0  0  0  0
  1 37  1  0  0  0  0
  2 10  1  0  0  0  0
  2 14  1  0  0  0  0
  4  3  2  0  0  0  0
  4  5  1  0  0  0  0
  5 38  1  0  0  0  0
  5 39  1  0  0  0  0
  5 40  1  0  0  0  0
  6  4  1  0  0  0  0
  6 41  1  0  0  0  0
  7  6  1  0  0  0  0
  7  8  1  0  0  0  0
  7  9  2  0  0  0  0
  8  2  2  0  0  0  0
  8 42  1  0  0  0  0
  9 10  1  0  0  0  0
 10 11  1  0  0  0  0
 11 12  1  0  0  0  0
 11 13  1  0  0  0  0
 11 43  1  0  0  0  0
 12 44  1  0  0  0  0
 12 45  1  0  0  0  0
 12 46  1  0  0  0  0
 13 47  1  0  0  0  0
 13 48  1  0  0  0  0
 13 49  1  0  0  0  0
 14  1  2  0  0  0  0
 14 22  1  0  0  0  0
 15 16  1  0  0  0  0
 15 24  2  0  0  0  0
 16 17  1  0  0  0  0
 16 21  1  0  0  0  0
 17 18  1  0  0  0  0
 17 50  1  0  0  0  0
 17 51  1  0  0  0  0
 18 19  1  0  0  0  0
 18 20  1  0  0  0  0
 18 52  1  6  0  0  0
 19 20  1  0  0  0  0
 19 53  1  0  0  0  0
 19 54  1  0  0  0  0
 20 21  1  0  0  0  0
 20 55  1  6  0  0  0
 21 56  1  0  0  0  0
 21 57  1  0  0  0  0
 22 23  2  0  0  0  0
 22 58  1  0  0  0  0
 23 24  1  0  0  0  0
 23 59  1  0  0  0  0
 24 25  1  0  0  0  0
 25 26  1  0  0  0  0
 25 27  1  0  0  0  0
 26 60  1  0  0  0  0
 26 61  1  0  0  0  0
 26 62  1  0  0  0  0
 27 28  2  0  0  0  0
 27 29  1  0  0  0  0
 29 30  2  0  0  0  0
 29 35  1  0  0  0  0
 30 31  1  0  0  0  0
 30 32  1  0  0  0  0
 32 33  2  0  0  0  0
 32 63  1  0  0  0  0
 33 34  1  0  0  0  0
 33 64  1  0  0  0  0
 34 35  2  0  0  0  0
 34 65  1  0  0  0  0
 35 36  1  0  0  0  0
M  END
