4zpf_ligand
 OpenBabel08222323353D

 77 81  0  0  1  0  0  0  0  0999 V2000
   29.3880   38.3760    0.4510 C   0  0  1  0  0  0  0  0  0  0  0  0
   29.4820   39.0890   -0.8100 N   0  0  0  0  0  0  0  0  0  0  0  0
   28.4990   38.7390   -1.7080 C   0  0  0  0  0  0  0  0  0  0  0  0
   27.6520   37.8660   -1.1020 N   0  0  0  0  0  0  0  0  0  0  0  0
   28.1100   37.6410    0.0940 C   0  0  0  0  0  0  0  0  0  0  0  0
   30.5040   37.3570    0.7180 C   0  0  0  0  0  0  0  0  0  0  0  0
   31.7970   37.9900    1.2240 C   0  0  0  0  0  0  0  0  0  0  0  0
   31.5170   38.8690    2.4040 N   0  3  2  0  0  0  0  0  0  0  0  0
   30.4060   39.8730    2.2400 C   0  0  0  0  0  0  0  0  0  0  0  0
   29.1240   39.2720    1.6580 C   0  0  0  0  0  0  0  0  0  0  0  0
   28.4100   39.1170   -2.8650 O   0  0  0  0  0  0  0  0  0  0  0  0
   27.5260   36.8070    1.0300 N   0  0  0  0  0  0  0  0  0  0  0  0
   30.4590   40.0380   -1.1720 C   0  0  0  0  0  0  0  0  0  0  0  0
   26.2570   36.1490    0.7600 C   0  0  0  0  0  0  0  0  0  0  0  0
   26.4940   34.6900    0.4050 C   0  0  0  0  0  0  0  0  0  0  0  0
   25.1650   33.9790    0.1260 C   0  0  0  0  0  0  0  0  0  0  0  0
   24.2340   34.1000    1.3280 C   0  0  0  0  0  0  0  0  0  0  0  0
   24.0080   35.5640    1.6780 C   0  0  0  0  0  0  0  0  0  0  0  0
   25.3390   36.2500    1.9670 C   0  0  0  0  0  0  0  0  0  0  0  0
   30.2510   41.3720   -0.8800 C   0  0  0  0  0  0  0  0  0  0  0  0
   31.1900   42.3170   -1.2340 C   0  0  0  0  0  0  0  0  0  0  0  0
   32.3140   41.9380   -1.9350 C   0  0  0  0  0  0  0  0  0  0  0  0
   32.4980   40.6070   -2.2460 C   0  0  0  0  0  0  0  0  0  0  0  0
   31.5760   39.6470   -1.8870 C   0  0  0  0  0  0  0  0  0  0  0  0
   33.5810   40.2490   -2.9350 F   0  0  0  0  0  0  0  0  0  0  0  0
   32.7650   39.4110    3.0430 C   0  0  0  0  0  0  0  0  0  0  0  0
   33.4470   40.4730    2.2280 C   0  0  0  0  0  0  0  0  0  0  0  0
   34.4030   40.1510    1.2770 C   0  0  0  0  0  0  0  0  0  0  0  0
   35.0070   41.1390    0.5170 C   0  0  0  0  0  0  0  0  0  0  0  0
   34.6360   42.4570    0.7070 C   0  0  0  0  0  0  0  0  0  0  0  0
   33.6780   42.7840    1.6530 C   0  0  0  0  0  0  0  0  0  0  0  0
   33.0910   41.7940    2.4200 C   0  0  0  0  0  0  0  0  0  0  0  0
   33.3600   44.1370    1.7710 O   0  0  0  0  0  0  0  0  0  0  0  0
   32.4870   44.4780    2.8650 C   0  0  2  0  0  0  0  0  0  0  0  0
   31.9640   45.8730    2.5670 C   0  0  0  0  0  0  0  0  0  0  0  0
   33.3070   44.5620    4.1480 C   0  0  0  0  0  0  0  0  0  0  0  0
   31.1010   45.8060    1.3640 N   0  3  0  0  0  0  0  0  0  0  0  0
   30.7208   36.8242   -0.2196 H   0  0  0  0  0  0  0  0  0  0  0  0
   30.1482   36.6406    1.4731 H   0  0  0  0  0  0  0  0  0  0  0  0
   32.2449   38.5929    0.4203 H   0  0  0  0  0  0  0  0  0  0  0  0
   32.4980   37.1960    1.5210 H   0  0  0  0  0  0  0  0  0  0  0  0
   31.1510   38.2304    3.0927 H   0  0  0  0  0  0  0  0  0  0  0  0
   30.7536   40.6708    1.5673 H   0  0  0  0  0  0  0  0  0  0  0  0
   30.1739   40.3004    3.2266 H   0  0  0  0  0  0  0  0  0  0  0  0
   28.6298   38.6746    2.4383 H   0  0  0  0  0  0  0  0  0  0  0  0
   28.4598   40.0924    1.3486 H   0  0  0  0  0  0  0  0  0  0  0  0
   27.9969   36.6493    1.9324 H   0  0  0  0  0  0  0  0  0  0  0  0
   25.7745   36.6480   -0.0933 H   0  0  0  0  0  0  0  0  0  0  0  0
   27.0011   34.1916    1.2443 H   0  0  0  0  0  0  0  0  0  0  0  0
   27.1285   34.6348   -0.4918 H   0  0  0  0  0  0  0  0  0  0  0  0
   25.3587   32.9153   -0.0766 H   0  0  0  0  0  0  0  0  0  0  0  0
   24.6856   34.4380   -0.7512 H   0  0  0  0  0  0  0  0  0  0  0  0
   24.6858   33.5868    2.1897 H   0  0  0  0  0  0  0  0  0  0  0  0
   23.2683   33.6316    1.0873 H   0  0  0  0  0  0  0  0  0  0  0  0
   23.3652   35.6294    2.5682 H   0  0  0  0  0  0  0  0  0  0  0  0
   23.5161   36.0676    0.8327 H   0  0  0  0  0  0  0  0  0  0  0  0
   25.1582   37.3102    2.1978 H   0  0  0  0  0  0  0  0  0  0  0  0
   25.8183   35.7635    2.8293 H   0  0  0  0  0  0  0  0  0  0  0  0
   29.3446   41.6773   -0.3698 H   0  0  0  0  0  0  0  0  0  0  0  0
   31.0445   43.3560   -0.9615 H   0  0  0  0  0  0  0  0  0  0  0  0
   33.0457   42.6779   -2.2388 H   0  0  0  0  0  0  0  0  0  0  0  0
   31.7235   38.6082   -2.1593 H   0  0  0  0  0  0  0  0  0  0  0  0
   33.4698   38.5793    3.1895 H   0  0  0  0  0  0  0  0  0  0  0  0
   32.4970   39.8409    4.0194 H   0  0  0  0  0  0  0  0  0  0  0  0
   34.6810   39.1141    1.1265 H   0  0  0  0  0  0  0  0  0  0  0  0
   35.7614   40.8818   -0.2178 H   0  0  0  0  0  0  0  0  0  0  0  0
   35.0967   43.2382    0.1132 H   0  0  0  0  0  0  0  0  0  0  0  0
   32.3531   42.0541    3.1703 H   0  0  0  0  0  0  0  0  0  0  0  0
   31.6684   43.7502    2.9658 H   0  0  0  0  0  0  0  0  0  0  0  0
   32.8079   46.5534    2.3805 H   0  0  0  0  0  0  0  0  0  0  0  0
   31.3790   46.2404    3.4230 H   0  0  0  0  0  0  0  0  0  0  0  0
   32.6469   44.8222    4.9886 H   0  0  0  0  0  0  0  0  0  0  0  0
   34.0822   45.3346    4.0378 H   0  0  0  0  0  0  0  0  0  0  0  0
   33.7833   43.5898    4.3431 H   0  0  0  0  0  0  0  0  0  0  0  0
   30.7460   46.7256    1.1535 H   0  0  0  0  0  0  0  0  0  0  0  0
   30.3303   45.1800    1.5378 H   0  0  0  0  0  0  0  0  0  0  0  0
   31.6397   45.4669    0.5825 H   0  0  0  0  0  0  0  0  0  0  0  0
  1  2  1  0  0  0  0
  1  5  1  6  0  0  0
  1  6  1  0  0  0  0
  1 10  1  0  0  0  0
  2  3  1  0  0  0  0
  2 13  1  0  0  0  0
  3  4  1  0  0  0  0
  3 11  2  0  0  0  0
  4  5  2  0  0  0  0
  5 12  1  0  0  0  0
  6  7  1  0  0  0  0
  6 38  1  0  0  0  0
  6 39  1  0  0  0  0
  7  8  1  0  0  0  0
  7 40  1  0  0  0  0
  7 41  1  0  0  0  0
  8  9  1  0  0  0  0
  8 26  1  0  0  0  0
  8 42  1  1  0  0  0
  9 10  1  0  0  0  0
  9 43  1  0  0  0  0
  9 44  1  0  0  0  0
 10 45  1  0  0  0  0
 10 46  1  0  0  0  0
 12 14  1  0  0  0  0
 12 47  1  0  0  0  0
 13 20  2  0  0  0  0
 13 24  1  0  0  0  0
 14 15  1  0  0  0  0
 14 19  1  0  0  0  0
 14 48  1  0  0  0  0
 15 16  1  0  0  0  0
 15 49  1  0  0  0  0
 15 50  1  0  0  0  0
 16 17  1  0  0  0  0
 16 51  1  0  0  0  0
 16 52  1  0  0  0  0
 17 18  1  0  0  0  0
 17 53  1  0  0  0  0
 17 54  1  0  0  0  0
 18 19  1  0  0  0  0
 18 55  1  0  0  0  0
 18 56  1  0  0  0  0
 19 57  1  0  0  0  0
 19 58  1  0  0  0  0
 20 21  1  0  0  0  0
 20 59  1  0  0  0  0
 21 22  2  0  0  0  0
 21 60  1  0  0  0  0
 22 23  1  0  0  0  0
 22 61  1  0  0  0  0
 23 24  2  0  0  0  0
 23 25  1  0  0  0  0
 24 62  1  0  0  0  0
 26 27  1  0  0  0  0
 26 63  1  0  0  0  0
 26 64  1  0  0  0  0
 27 28  2  0  0  0  0
 27 32  1  0  0  0  0
 28 29  1  0  0  0  0
 28 65  1  0  0  0  0
 29 30  2  0  0  0  0
 29 66  1  0  0  0  0
 30 31  1  0  0  0  0
 30 67  1  0  0  0  0
 31 32  2  0  0  0  0
 31 33  1  0  0  0  0
 32 68  1  0  0  0  0
 33 34  1  0  0  0  0
 34 35  1  0  0  0  0
 34 36  1  0  0  0  0
 34 69  1  1  0  0  0
 35 37  1  0  0  0  0
 35 70  1  0  0  0  0
 35 71  1  0  0  0  0
 36 72  1  0  0  0  0
 36 73  1  0  0  0  0
 36 74  1  0  0  0  0
 37 75  1  0  0  0  0
 37 76  1  0  0  0  0
 37 77  1  0  0  0  0
M  CHG  2   8   1  37   1
M  END
