4zqt_ligand
 OpenBabel08222323353D

 41 41  0  0  1  0  0  0  0  0999 V2000
   10.9180   12.8170   11.9810 N   0  3  0  0  0  0  0  0  0  0  0  0
   12.4840   12.6460   13.8510 C   0  0  0  0  0  0  0  0  0  0  0  0
   11.8450   11.5140   15.8830 C   0  0  0  0  0  0  0  0  0  0  0  0
   13.6050   13.1500   15.9180 C   0  0  0  0  0  0  0  0  0  0  0  0
   17.1170    9.5810    8.5020 C   0  0  0  0  0  0  0  0  0  0  0  0
   16.2830    8.7970    9.4930 C   0  0  0  0  0  0  0  0  0  0  0  0
   15.7040    7.5870    8.7930 C   0  0  0  0  0  0  0  0  0  0  0  0
   15.1880    9.6270   10.1630 C   0  0  0  0  0  0  0  0  0  0  0  0
   15.6620   10.4010   11.3880 C   0  0  1  0  0  0  0  0  0  0  0  0
   14.5890   11.0250   12.2650 C   0  0  0  0  0  0  0  0  0  0  0  0
   13.1970   11.6960   11.3210 P   0  0  2  0  0  0  0  0  0  0  0  0
   12.2700   10.5000   10.8580 O   0  0  0  0  0  1  0  0  0  0  0  0
   13.6540   12.4270   10.1320 O   0  0  0  0  0  0  0  0  0  0  0  0
   12.2940   12.8880   12.3610 C   0  0  1  0  0  0  0  0  0  0  0  0
   11.6840   11.7250   14.5210 C   0  0  0  0  0  0  0  0  0  0  0  0
   12.8100   12.2220   16.5830 C   0  0  0  0  0  0  0  0  0  0  0  0
   13.4440   13.3550   14.5540 C   0  0  0  0  0  0  0  0  0  0  0  0
   16.5430    9.5640   12.2730 C   0  0  0  0  0  0  0  0  0  0  0  0
   17.7630    9.8250   12.2960 O   0  5  0  0  0  0  0  0  0  0  0  0
   16.0500    8.6360   12.9790 O   0  0  0  0  0  0  0  0  0  0  0  0
   10.3821   13.4652   12.5366 H   0  0  0  0  0  0  0  0  0  0  0  0
   10.5753   11.8813   12.1327 H   0  0  0  0  0  0  0  0  0  0  0  0
   10.8260   13.0545   11.0057 H   0  0  0  0  0  0  0  0  0  0  0  0
   11.2172   10.7966   16.3990 H   0  0  0  0  0  0  0  0  0  0  0  0
   14.3514   13.7140   16.4655 H   0  0  0  0  0  0  0  0  0  0  0  0
   17.8801    8.9218    8.0625 H   0  0  0  0  0  0  0  0  0  0  0  0
   17.6092   10.4183    9.0184 H   0  0  0  0  0  0  0  0  0  0  0  0
   16.4677    9.9725    7.7050 H   0  0  0  0  0  0  0  0  0  0  0  0
   16.9551    8.4431   10.2886 H   0  0  0  0  0  0  0  0  0  0  0  0
   15.0953    7.0087    9.5037 H   0  0  0  0  0  0  0  0  0  0  0  0
   16.5217    6.9569    8.4132 H   0  0  0  0  0  0  0  0  0  0  0  0
   15.0740    7.9157    7.9533 H   0  0  0  0  0  0  0  0  0  0  0  0
   14.3800    8.9483   10.4735 H   0  0  0  0  0  0  0  0  0  0  0  0
   14.7999   10.3468    9.4273 H   0  0  0  0  0  0  0  0  0  0  0  0
   16.2719   11.2302   11.0002 H   0  0  0  0  0  0  0  0  0  0  0  0
   15.0432   11.8412   12.8458 H   0  0  0  0  0  0  0  0  0  0  0  0
   14.2070   10.2550   12.9514 H   0  0  0  0  0  0  0  0  0  0  0  0
   12.6696   13.8978   12.1393 H   0  0  0  0  0  0  0  0  0  0  0  0
   10.9303   11.1689   13.9753 H   0  0  0  0  0  0  0  0  0  0  0  0
   12.9446   12.0529   17.6452 H   0  0  0  0  0  0  0  0  0  0  0  0
   14.0717   14.0723   14.0377 H   0  0  0  0  0  0  0  0  0  0  0  0
  1 21  1  0  0  0  0
  1 22  1  0  0  0  0
  1 23  1  0  0  0  0
  2 15  2  0  0  0  0
  2 17  1  0  0  0  0
  3 16  2  0  0  0  0
  3 24  1  0  0  0  0
  4 16  1  0  0  0  0
  4 25  1  0  0  0  0
  5 26  1  0  0  0  0
  5 27  1  0  0  0  0
  5 28  1  0  0  0  0
  6  5  1  0  0  0  0
  6  7  1  0  0  0  0
  6 29  1  0  0  0  0
  7 30  1  0  0  0  0
  7 31  1  0  0  0  0
  7 32  1  0  0  0  0
  8  6  1  0  0  0  0
  8 33  1  0  0  0  0
  8 34  1  0  0  0  0
  9  8  1  0  0  0  0
  9 18  1  0  0  0  0
  9 35  1  6  0  0  0
 10  9  1  0  0  0  0
 10 36  1  0  0  0  0
 10 37  1  0  0  0  0
 11 10  1  0  0  0  0
 11 12  1  6  0  0  0
 11 13  2  0  0  0  0
 11 14  1  0  0  0  0
 14  1  1  0  0  0  0
 14  2  1  0  0  0  0
 14 38  1  6  0  0  0
 15  3  1  0  0  0  0
 15 39  1  0  0  0  0
 16 40  1  0  0  0  0
 17  4  2  0  0  0  0
 17 41  1  0  0  0  0
 18 19  1  0  0  0  0
 18 20  2  0  0  0  0
M  CHG  2   1   1  19  -1
M  END
