4zro_ligand
 OpenBabel08222323353D

 97 97  0  0  1  0  0  0  0  0999 V2000
   46.3520   -8.4620   26.4790 O   0  0  0  0  0  0  0  0  0  0  0  0
   45.8190   -9.3170   27.1360 C   0  0  0  0  0  0  0  0  0  0  0  0
   46.2820  -10.6720   27.1770 O   0  0  0  0  0  0  0  0  0  0  0  0
   47.5920  -10.9870   26.7090 C   0  0  0  0  0  0  0  0  0  0  0  0
   47.6530  -10.8970   25.1990 C   0  0  0  0  0  0  0  0  0  0  0  0
   47.8320  -12.4660   27.1190 C   0  0  0  0  0  0  0  0  0  0  0  0
   48.7090  -10.1040   27.3450 C   0  0  0  0  0  0  0  0  0  0  0  0
   44.6140   -8.9840   27.9380 N   0  0  0  0  0  0  0  0  0  0  0  0
   44.2330   -7.5840   28.0260 C   0  0  2  0  0  0  0  0  0  0  0  0
   45.2150   -6.8660   28.9420 C   0  0  0  0  0  0  0  0  0  0  0  0
   45.7290   -7.4360   29.8620 O   0  0  0  0  0  0  0  0  0  0  0  0
   42.8890   -7.4250   28.6100 C   0  0  0  0  0  0  0  0  0  0  0  0
   42.0210   -8.3630   28.0040 O   0  0  0  0  0  0  0  0  0  0  0  0
   45.5270   -5.4490   28.6530 N   0  0  0  0  0  0  0  0  0  0  0  0
   46.4070   -4.7340   29.4750 C   0  0  2  0  0  0  0  0  0  0  0  0
   45.5930   -3.5500   30.0280 C   0  0  0  0  0  0  0  0  0  0  0  0
   45.0690   -2.7380   29.2920 O   0  0  0  0  0  0  0  0  0  0  0  0
   47.5930   -4.2180   28.6700 C   0  0  0  0  0  0  0  0  0  0  0  0
   48.4910   -3.3440   29.5670 C   0  0  0  0  0  0  0  0  0  0  0  0
   48.3930   -5.4030   28.0670 C   0  0  0  0  0  0  0  0  0  0  0  0
   45.4530   -3.4180   31.4680 N   0  0  0  0  0  0  0  0  0  0  0  0
   44.6950   -2.3100   32.0110 C   0  0  2  0  0  0  0  0  0  0  0  0
   45.5660   -1.1040   31.7140 C   0  0  0  0  0  0  0  0  0  0  0  0
   46.7680   -1.1830   31.8690 O   0  0  0  0  0  0  0  0  0  0  0  0
   44.4970   -2.5300   33.5000 C   0  0  0  0  0  0  0  0  0  0  0  0
   43.2050   -3.3170   33.8250 C   0  0  0  0  0  0  0  0  0  0  0  0
   43.0330   -4.6040   32.9790 C   0  0  0  0  0  0  0  0  0  0  0  0
   43.1580   -3.7010   35.3300 C   0  0  0  0  0  0  0  0  0  0  0  0
   48.4370    1.1890   33.9990 O   0  0  0  0  0  0  0  0  0  0  0  0
   48.3880    1.1640   35.4220 C   0  0  0  0  0  0  0  0  0  0  0  0
   49.6530    0.4960   35.9980 C   0  0  0  0  0  0  0  0  0  0  0  0
   44.9780    0.1050   31.2180 N   0  0  0  0  0  0  0  0  0  0  0  0
   45.8040    1.2430   30.8960 C   0  0  1  0  0  0  0  0  0  0  0  0
   45.5080    1.6040   29.4270 C   0  0  0  0  0  0  0  0  0  0  0  0
   46.0920    0.5200   28.4950 C   0  0  1  0  0  0  0  0  0  0  0  0
   45.5430    2.3580   31.8840 C   0  0  0  0  0  0  0  0  0  0  0  0
   45.8790    0.7870   27.0870 C   0  0  0  0  0  0  0  0  0  0  0  0
   44.8400    1.1500   26.5650 O   0  0  0  0  0  0  0  0  0  0  0  0
   47.1330    0.5090   26.3480 N   0  0  0  0  0  0  0  0  0  0  0  0
   48.1030    0.1100   27.2360 C   0  0  0  0  0  0  0  0  0  0  0  0
   47.5740    0.5060   28.6350 C   0  0  0  0  0  0  0  0  0  0  0  0
   46.0950    2.0010   33.3070 C   0  0  0  0  0  0  0  0  0  0  0  0
   47.6150    2.1590   33.3710 C   0  0  0  0  0  0  0  0  0  0  0  0
   48.1490    3.1400   32.8600 O   0  0  0  0  0  0  0  0  0  0  0  0
   48.6694  -11.1429   24.8578 H   0  0  0  0  0  0  0  0  0  0  0  0
   47.3970   -9.8753   24.8819 H   0  0  0  0  0  0  0  0  0  0  0  0
   46.9370  -11.6074   24.7601 H   0  0  0  0  0  0  0  0  0  0  0  0
   48.8325  -12.7807   26.7874 H   0  0  0  0  0  0  0  0  0  0  0  0
   47.0714  -13.1054   26.6471 H   0  0  0  0  0  0  0  0  0  0  0  0
   47.7621  -12.5593   28.2128 H   0  0  0  0  0  0  0  0  0  0  0  0
   49.6872  -10.4017   26.9394 H   0  0  0  0  0  0  0  0  0  0  0  0
   48.7077  -10.2408   28.4364 H   0  0  0  0  0  0  0  0  0  0  0  0
   48.5202   -9.0466   27.1078 H   0  0  0  0  0  0  0  0  0  0  0  0
   44.0849   -9.6959   28.3999 H   0  0  0  0  0  0  0  0  0  0  0  0
   44.2544   -7.1366   27.0214 H   0  0  0  0  0  0  0  0  0  0  0  0
   42.5217   -6.4052   28.4229 H   0  0  0  0  0  0  0  0  0  0  0  0
   42.9320   -7.6061   29.6941 H   0  0  0  0  0  0  0  0  0  0  0  0
   42.3432   -9.2419   28.1663 H   0  0  0  0  0  0  0  0  0  0  0  0
   45.1066   -4.9987   27.8653 H   0  0  0  0  0  0  0  0  0  0  0  0
   46.7681   -5.3710   30.2959 H   0  0  0  0  0  0  0  0  0  0  0  0
   47.2148   -3.5980   27.8438 H   0  0  0  0  0  0  0  0  0  0  0  0
   49.3454   -2.9742   28.9812 H   0  0  0  0  0  0  0  0  0  0  0  0
   48.8585   -3.9433   30.4130 H   0  0  0  0  0  0  0  0  0  0  0  0
   47.9102   -2.4907   29.9470 H   0  0  0  0  0  0  0  0  0  0  0  0
   47.7290   -6.0086   27.4327 H   0  0  0  0  0  0  0  0  0  0  0  0
   48.7929   -6.0269   28.8799 H   0  0  0  0  0  0  0  0  0  0  0  0
   49.2242   -5.0136   27.4608 H   0  0  0  0  0  0  0  0  0  0  0  0
   45.8765   -4.0867   32.0791 H   0  0  0  0  0  0  0  0  0  0  0  0
   43.7162   -2.2132   31.5185 H   0  0  0  0  0  0  0  0  0  0  0  0
   44.4450   -1.5496   33.9960 H   0  0  0  0  0  0  0  0  0  0  0  0
   45.3582   -3.0927   33.8894 H   0  0  0  0  0  0  0  0  0  0  0  0
   42.3532   -2.6555   33.6087 H   0  0  0  0  0  0  0  0  0  0  0  0
   42.0976   -5.1078   33.2640 H   0  0  0  0  0  0  0  0  0  0  0  0
   43.8827   -5.2785   33.1606 H   0  0  0  0  0  0  0  0  0  0  0  0
   42.9965   -4.3393   31.9120 H   0  0  0  0  0  0  0  0  0  0  0  0
   43.2790   -2.7959   35.9433 H   0  0  0  0  0  0  0  0  0  0  0  0
   43.9713   -4.4070   35.5539 H   0  0  0  0  0  0  0  0  0  0  0  0
   42.1904   -4.1719   35.5583 H   0  0  0  0  0  0  0  0  0  0  0  0
   47.5019    0.5969   35.7431 H   0  0  0  0  0  0  0  0  0  0  0  0
   48.3202    2.1950   35.7994 H   0  0  0  0  0  0  0  0  0  0  0  0
   49.5951    0.4870   37.0964 H   0  0  0  0  0  0  0  0  0  0  0  0
   50.5423    1.0613   35.6824 H   0  0  0  0  0  0  0  0  0  0  0  0
   49.7240   -0.5368   35.6261 H   0  0  0  0  0  0  0  0  0  0  0  0
   43.9872    0.1603   31.0941 H   0  0  0  0  0  0  0  0  0  0  0  0
   46.8640    0.9609   30.9781 H   0  0  0  0  0  0  0  0  0  0  0  0
   45.9666    2.5753   29.1899 H   0  0  0  0  0  0  0  0  0  0  0  0
   44.4199    1.6661   29.2782 H   0  0  0  0  0  0  0  0  0  0  0  0
   45.6607   -0.4556   28.7638 H   0  0  0  0  0  0  0  0  0  0  0  0
   44.4585    2.5286   31.9531 H   0  0  0  0  0  0  0  0  0  0  0  0
   46.0364    3.2745   31.5282 H   0  0  0  0  0  0  0  0  0  0  0  0
   47.2543    0.5977   25.3593 H   0  0  0  0  0  0  0  0  0  0  0  0
   49.0521    0.6242   27.0247 H   0  0  0  0  0  0  0  0  0  0  0  0
   48.2542   -0.9779   27.1764 H   0  0  0  0  0  0  0  0  0  0  0  0
   47.8844   -0.2321   29.3892 H   0  0  0  0  0  0  0  0  0  0  0  0
   47.9450    1.5011   28.9214 H   0  0  0  0  0  0  0  0  0  0  0  0
   45.8333    0.9586   33.5414 H   0  0  0  0  0  0  0  0  0  0  0  0
   45.6340    2.6704   34.0482 H   0  0  0  0  0  0  0  0  0  0  0  0
  2  1  2  0  0  0  0
  2  3  1  0  0  0  0
  3  4  1  0  0  0  0
  4  5  1  0  0  0  0
  4  6  1  0  0  0  0
  4  7  1  0  0  0  0
  5 45  1  0  0  0  0
  5 46  1  0  0  0  0
  5 47  1  0  0  0  0
  6 48  1  0  0  0  0
  6 49  1  0  0  0  0
  6 50  1  0  0  0  0
  7 51  1  0  0  0  0
  7 52  1  0  0  0  0
  7 53  1  0  0  0  0
  8  2  1  0  0  0  0
  8 54  1  0  0  0  0
  9  8  1  0  0  0  0
  9 12  1  0  0  0  0
  9 55  1  6  0  0  0
 10  9  1  0  0  0  0
 10 11  2  0  0  0  0
 12 13  1  0  0  0  0
 12 56  1  0  0  0  0
 12 57  1  0  0  0  0
 13 58  1  0  0  0  0
 14 10  1  0  0  0  0
 14 59  1  0  0  0  0
 15 14  1  0  0  0  0
 15 18  1  0  0  0  0
 15 60  1  1  0  0  0
 16 15  1  0  0  0  0
 16 17  2  0  0  0  0
 18 19  1  0  0  0  0
 18 20  1  0  0  0  0
 18 61  1  0  0  0  0
 19 62  1  0  0  0  0
 19 63  1  0  0  0  0
 19 64  1  0  0  0  0
 20 65  1  0  0  0  0
 20 66  1  0  0  0  0
 20 67  1  0  0  0  0
 21 16  1  0  0  0  0
 21 68  1  0  0  0  0
 22 21  1  0  0  0  0
 22 25  1  0  0  0  0
 22 69  1  6  0  0  0
 23 22  1  0  0  0  0
 23 24  2  0  0  0  0
 25 26  1  0  0  0  0
 25 70  1  0  0  0  0
 25 71  1  0  0  0  0
 26 27  1  0  0  0  0
 26 28  1  0  0  0  0
 26 72  1  0  0  0  0
 27 73  1  0  0  0  0
 27 74  1  0  0  0  0
 27 75  1  0  0  0  0
 28 76  1  0  0  0  0
 28 77  1  0  0  0  0
 28 78  1  0  0  0  0
 29 30  1  0  0  0  0
 30 31  1  0  0  0  0
 30 79  1  0  0  0  0
 30 80  1  0  0  0  0
 31 81  1  0  0  0  0
 31 82  1  0  0  0  0
 31 83  1  0  0  0  0
 32 23  1  0  0  0  0
 32 84  1  0  0  0  0
 33 32  1  0  0  0  0
 33 34  1  0  0  0  0
 33 85  1  1  0  0  0
 34 35  1  0  0  0  0
 34 86  1  0  0  0  0
 34 87  1  0  0  0  0
 35 37  1  0  0  0  0
 35 41  1  0  0  0  0
 35 88  1  1  0  0  0
 36 33  1  0  0  0  0
 36 89  1  0  0  0  0
 36 90  1  0  0  0  0
 37 38  2  0  0  0  0
 37 39  1  0  0  0  0
 39 91  1  0  0  0  0
 40 39  1  0  0  0  0
 40 92  1  0  0  0  0
 40 93  1  0  0  0  0
 41 40  1  0  0  0  0
 41 94  1  0  0  0  0
 41 95  1  0  0  0  0
 42 36  1  0  0  0  0
 42 43  1  0  0  0  0
 42 96  1  0  0  0  0
 42 97  1  0  0  0  0
 43 29  1  0  0  0  0
 43 44  2  0  0  0  0
M  END
