4zs2_ligand
 OpenBabel08222323353D

 38 41  0  0  0  0  0  0  0  0999 V2000
  173.7030    3.0190   33.9270 C   0  0  0  0  0  0  0  0  0  0  0  0
  173.3580    1.8090   34.3550 O   0  0  0  0  0  0  0  0  0  0  0  0
  173.1920    3.4900   32.7350 C   0  0  0  0  0  0  0  0  0  0  0  0
  173.5450    4.7440   32.2740 C   0  0  0  0  0  0  0  0  0  0  0  0
  173.0070    5.1480   31.0700 O   0  0  0  0  0  0  0  0  0  0  0  0
  173.3200    6.3840   30.5820 C   0  0  0  0  0  0  0  0  0  0  0  0
  172.7400    6.7220   29.3790 C   0  0  0  0  0  0  0  0  0  0  0  0
  173.0120    7.9550   28.8110 C   0  0  0  0  0  0  0  0  0  0  0  0
  172.4420    8.2720   27.6420 O   0  0  0  0  0  0  0  0  0  0  0  0
  173.8700    8.8360   29.4710 C   0  0  0  0  0  0  0  0  0  0  0  0
  174.4580    8.4870   30.6880 C   0  0  0  0  0  0  0  0  0  0  0  0
  174.1860    7.2460   31.2760 C   0  0  0  0  0  0  0  0  0  0  0  0
  174.7540    6.8510   32.5130 C   0  0  0  0  0  0  0  0  0  0  0  0
  174.4120    5.5710   33.0000 C   0  0  0  0  0  0  0  0  0  0  0  0
  174.9090    5.0830   34.2090 C   0  0  0  0  0  0  0  0  0  0  0  0
  174.5620    3.8160   34.6630 C   0  0  0  0  0  0  0  0  0  0  0  0
  175.4050    7.7410   33.3720 C   0  0  0  0  0  0  0  0  0  0  0  0
  174.6830    8.7660   33.9940 C   0  0  0  0  0  0  0  0  0  0  0  0
  175.2950    9.6640   34.8780 C   0  0  0  0  0  0  0  0  0  0  0  0
  176.6520    9.5490   35.1790 C   0  0  0  0  0  0  0  0  0  0  0  0
  177.3860    8.5340   34.5760 C   0  0  0  0  0  0  0  0  0  0  0  0
  176.7710    7.6420   33.6840 C   0  0  0  0  0  0  0  0  0  0  0  0
  177.6210    6.5890   33.0790 C   0  0  0  0  0  0  0  0  0  0  0  0
  177.5100    6.3060   31.8750 O   0  5  0  0  0  0  0  0  0  0  0  0
  178.4510    5.9850   33.7820 O   0  0  0  0  0  0  0  0  0  0  0  0
  173.7892    1.6323   35.1828 H   0  0  0  0  0  0  0  0  0  0  0  0
  172.5114    2.8743   32.1582 H   0  0  0  0  0  0  0  0  0  0  0  0
  172.0746    6.0267   28.8801 H   0  0  0  0  0  0  0  0  0  0  0  0
  171.4969    8.2566   27.7373 H   0  0  0  0  0  0  0  0  0  0  0  0
  174.0827    9.8043   29.0326 H   0  0  0  0  0  0  0  0  0  0  0  0
  175.1292    9.1811   31.1807 H   0  0  0  0  0  0  0  0  0  0  0  0
  175.6936    6.5154   32.0499 H   0  0  0  0  0  0  0  0  0  0  0  0
  175.5744    5.7001   34.8019 H   0  0  0  0  0  0  0  0  0  0  0  0
  174.9668    3.4499   35.5996 H   0  0  0  0  0  0  0  0  0  0  0  0
  173.6239    8.8675   33.7865 H   0  0  0  0  0  0  0  0  0  0  0  0
  174.7090   10.4549   35.3319 H   0  0  0  0  0  0  0  0  0  0  0  0
  177.1251   10.2376   35.8697 H   0  0  0  0  0  0  0  0  0  0  0  0
  178.4423    8.4307   34.7967 H   0  0  0  0  0  0  0  0  0  0  0  0
  1  2  1  0  0  0  0
  1  3  2  0  0  0  0
  1 16  1  0  0  0  0
  2 26  1  0  0  0  0
  3  4  1  0  0  0  0
  3 27  1  0  0  0  0
  4  5  1  0  0  0  0
  4 14  2  0  0  0  0
  5  6  1  0  0  0  0
  6  7  2  0  0  0  0
  6 12  1  0  0  0  0
  7  8  1  0  0  0  0
  7 28  1  0  0  0  0
  8  9  1  0  0  0  0
  8 10  2  0  0  0  0
  9 29  1  0  0  0  0
 10 11  1  0  0  0  0
 10 30  1  0  0  0  0
 11 12  2  0  0  0  0
 11 31  1  0  0  0  0
 12 13  1  0  0  0  0
 13 14  1  0  0  0  0
 13 17  1  0  0  0  0
 13 32  1  0  0  0  0
 14 15  1  0  0  0  0
 15 16  2  0  0  0  0
 15 33  1  0  0  0  0
 16 34  1  0  0  0  0
 17 18  2  0  0  0  0
 17 22  1  0  0  0  0
 18 19  1  0  0  0  0
 18 35  1  0  0  0  0
 19 20  2  0  0  0  0
 19 36  1  0  0  0  0
 20 21  1  0  0  0  0
 20 37  1  0  0  0  0
 21 22  2  0  0  0  0
 21 38  1  0  0  0  0
 22 23  1  0  0  0  0
 23 24  1  0  0  0  0
 23 25  2  0  0  0  0
M  CHG  1  24  -1
M  END
