4zsa_ligand
 OpenBabel08222323353D

 64 68  0  0  0  0  0  0  0  0999 V2000
  199.8480    4.3480   87.0970 C   0  0  0  0  0  0  0  0  0  0  0  0
  196.1450    3.8100   82.3560 C   0  0  0  0  0  0  0  0  0  0  0  0
  195.9400    6.0690   79.3930 C   0  0  0  0  0  0  0  0  0  0  0  0
  196.9200    6.4340   78.4720 C   0  0  0  0  0  0  0  0  0  0  0  0
  196.5890    6.9290   77.2220 C   0  0  0  0  0  0  0  0  0  0  0  0
  194.2620    6.6800   77.7780 C   0  0  0  0  0  0  0  0  0  0  0  0
  192.5990    7.1940   76.1270 C   0  0  0  0  0  0  0  0  0  0  0  0
  197.3150    6.1700   81.4470 C   0  0  0  0  0  0  0  0  0  0  0  0
  205.3230    1.7370   93.9690 C   0  0  0  0  0  0  0  0  0  0  0  0
  204.8880    3.0590   93.3670 C   0  0  0  0  0  0  0  0  0  0  0  0
  204.2300    2.9280   92.3140 N   0  3  0  0  0  0  0  0  0  0  0  0
  202.8850    2.7480   92.6160 C   0  0  0  0  0  0  0  0  0  0  0  0
  201.9950    2.7650   91.3810 C   0  0  0  0  0  0  0  0  0  0  0  0
  202.1760    3.8650   90.5750 N   0  0  0  0  0  0  0  0  0  0  0  0
  201.3690    4.0050   89.4190 C   0  0  0  0  0  0  0  0  0  0  0  0
  201.7410    4.9330   88.4590 C   0  0  0  0  0  0  0  0  0  0  0  0
  200.9910    5.1100   87.3060 C   0  0  0  0  0  0  0  0  0  0  0  0
  199.0440    4.5250   85.8210 C   0  0  0  0  0  0  0  0  0  0  0  0
  199.2680    5.4690   85.1050 O   0  0  0  0  0  0  0  0  0  0  0  0
  198.0350    3.5790   85.4820 N   0  0  0  0  0  0  0  0  0  0  0  0
  197.2070    3.5530   84.3060 C   0  0  0  0  0  0  0  0  0  0  0  0
  196.3670    2.5360   84.1200 N   0  0  0  0  0  0  0  0  0  0  0  0
  195.7060    2.6640   82.9580 N   0  0  0  0  0  0  0  0  0  0  0  0
  195.7600    4.3680   81.0960 C   0  0  0  0  0  0  0  0  0  0  0  0
  196.3260    5.5530   80.6460 C   0  0  0  0  0  0  0  0  0  0  0  0
  195.2510    7.0520   76.8740 C   0  0  0  0  0  0  0  0  0  0  0  0
  192.9060    6.7900   77.4360 O   0  0  0  0  0  0  0  0  0  0  0  0
  194.6130    6.1890   79.0270 C   0  0  0  0  0  0  0  0  0  0  0  0
  197.7100    5.6060   82.6770 C   0  0  0  0  0  0  0  0  0  0  0  0
  197.1030    4.4020   83.1570 C   0  0  0  0  0  0  0  0  0  0  0  0
  199.4810    3.4030   88.0560 C   0  0  0  0  0  0  0  0  0  0  0  0
  200.2350    3.2300   89.2120 C   0  0  0  0  0  0  0  0  0  0  0  0
  203.5000    4.1730   90.3790 C   0  0  0  0  0  0  0  0  0  0  0  0
  204.4100    4.0820   91.5770 C   0  0  0  0  0  0  0  0  0  0  0  0
  197.9649    6.3280   78.7402 H   0  0  0  0  0  0  0  0  0  0  0  0
  197.3659    7.2172   76.5232 H   0  0  0  0  0  0  0  0  0  0  0  0
  191.5068    7.2360   76.0029 H   0  0  0  0  0  0  0  0  0  0  0  0
  193.0218    6.4729   75.4120 H   0  0  0  0  0  0  0  0  0  0  0  0
  193.0277    8.1897   75.9405 H   0  0  0  0  0  0  0  0  0  0  0  0
  197.7765    7.0911   81.1097 H   0  0  0  0  0  0  0  0  0  0  0  0
  205.8952    1.9240   94.8896 H   0  0  0  0  0  0  0  0  0  0  0  0
  205.9541    1.1960   93.2486 H   0  0  0  0  0  0  0  0  0  0  0  0
  204.4353    1.1320   94.2056 H   0  0  0  0  0  0  0  0  0  0  0  0
  205.7860    3.6547   93.1461 H   0  0  0  0  0  0  0  0  0  0  0  0
  204.2672    3.5907   94.1031 H   0  0  0  0  0  0  0  0  0  0  0  0
  204.5652    2.1324   91.7937 H   0  0  0  0  0  0  0  0  0  0  0  0
  202.5652    3.5558   93.2906 H   0  0  0  0  0  0  0  0  0  0  0  0
  202.7652    1.7787   93.1220 H   0  0  0  0  0  0  0  0  0  0  0  0
  200.9457    2.7469   91.7107 H   0  0  0  0  0  0  0  0  0  0  0  0
  202.2087    1.8633   90.7884 H   0  0  0  0  0  0  0  0  0  0  0  0
  202.6327    5.5301   88.6119 H   0  0  0  0  0  0  0  0  0  0  0  0
  201.2964    5.8428   86.5679 H   0  0  0  0  0  0  0  0  0  0  0  0
  197.8836    2.8431   86.1419 H   0  0  0  0  0  0  0  0  0  0  0  0
  194.9965    2.0158   82.5874 H   0  0  0  0  0  0  0  0  0  0  0  0
  195.0199    3.8610   80.4875 H   0  0  0  0  0  0  0  0  0  0  0  0
  194.9773    7.4376   75.8986 H   0  0  0  0  0  0  0  0  0  0  0  0
  193.8367    5.8958   79.7245 H   0  0  0  0  0  0  0  0  0  0  0  0
  198.4815    6.0892   83.2655 H   0  0  0  0  0  0  0  0  0  0  0  0
  198.5969    2.7959   87.8980 H   0  0  0  0  0  0  0  0  0  0  0  0
  199.9385    2.4926   89.9491 H   0  0  0  0  0  0  0  0  0  0  0  0
  203.5481    5.2060   90.0040 H   0  0  0  0  0  0  0  0  0  0  0  0
  203.8903    3.4864   89.6134 H   0  0  0  0  0  0  0  0  0  0  0  0
  205.4523    4.1135   91.2267 H   0  0  0  0  0  0  0  0  0  0  0  0
  204.2160    4.9464   92.2290 H   0  0  0  0  0  0  0  0  0  0  0  0
  1 17  2  0  0  0  0
  1 31  1  0  0  0  0
  2 23  1  0  0  0  0
  2 30  1  0  0  0  0
  3  4  2  0  0  0  0
  3 28  1  0  0  0  0
  4  5  1  0  0  0  0
  4 35  1  0  0  0  0
  5 26  2  0  0  0  0
  5 36  1  0  0  0  0
  6 26  1  0  0  0  0
  6 27  1  0  0  0  0
  7 37  1  0  0  0  0
  7 38  1  0  0  0  0
  7 39  1  0  0  0  0
  8 29  1  0  0  0  0
  8 40  1  0  0  0  0
  9 41  1  0  0  0  0
  9 42  1  0  0  0  0
  9 43  1  0  0  0  0
 10  9  1  0  0  0  0
 10 44  1  0  0  0  0
 10 45  1  0  0  0  0
 11 10  1  0  0  0  0
 11 34  1  0  0  0  0
 11 46  1  0  0  0  0
 12 11  1  0  0  0  0
 12 47  1  0  0  0  0
 12 48  1  0  0  0  0
 13 12  1  0  0  0  0
 13 49  1  0  0  0  0
 13 50  1  0  0  0  0
 14 13  1  0  0  0  0
 14 33  1  0  0  0  0
 15 14  1  0  0  0  0
 15 32  1  0  0  0  0
 16 15  2  0  0  0  0
 16 51  1  0  0  0  0
 17 16  1  0  0  0  0
 17 52  1  0  0  0  0
 18  1  1  0  0  0  0
 18 19  2  0  0  0  0
 20 18  1  0  0  0  0
 20 53  1  0  0  0  0
 21 20  1  0  0  0  0
 21 22  2  0  0  0  0
 23 22  1  0  0  0  0
 23 54  1  0  0  0  0
 24  2  2  0  0  0  0
 24 25  1  0  0  0  0
 24 55  1  0  0  0  0
 25  3  1  0  0  0  0
 25  8  2  0  0  0  0
 26 56  1  0  0  0  0
 27  7  1  0  0  0  0
 28  6  2  0  0  0  0
 28 57  1  0  0  0  0
 29 30  2  0  0  0  0
 29 58  1  0  0  0  0
 30 21  1  0  0  0  0
 31 32  2  0  0  0  0
 31 59  1  0  0  0  0
 32 60  1  0  0  0  0
 33 34  1  0  0  0  0
 33 61  1  0  0  0  0
 33 62  1  0  0  0  0
 34 63  1  0  0  0  0
 34 64  1  0  0  0  0
M  CHG  1  11   1
M  END
