4zsm_ligand
 OpenBabel08222323353D

 26 27  0  0  1  0  0  0  0  0999 V2000
   14.3600   -2.7380   -1.0300 C   0  0  1  0  0  0  0  0  0  0  0  0
   14.6960   -2.6750    1.8910 C   0  0  1  0  0  3  0  0  0  0  0  0
   16.0440   -1.1590   -1.9250 C   0  0  0  0  0  0  0  0  0  0  0  0
   12.9930   -2.8840   -0.3920 C   0  0  0  0  0  0  0  0  0  0  0  0
   16.7430   -3.3660   -0.9560 C   0  0  0  0  0  0  0  0  0  0  0  0
   14.7100   -1.2730   -1.2350 C   0  0  0  0  0  0  0  0  0  0  0  0
   17.1060   -1.8990   -1.1210 C   0  0  0  0  0  0  0  0  0  0  0  0
   15.4170   -3.5220   -0.2490 C   0  0  1  0  0  0  0  0  0  0  0  0
   14.8670   -2.2960    3.1960 N   0  0  0  0  0  0  0  0  0  0  0  0
   15.6680   -3.1180    1.1560 N   0  0  0  0  0  0  0  0  0  0  0  0
   13.0120   -2.4890    1.3830 S   0  0  0  0  0  0  0  0  0  0  0  0
   14.3039   -3.1929   -2.0300 H   0  0  0  0  0  0  0  0  0  0  0  0
   16.3225   -0.0981   -2.0084 H   0  0  0  0  0  0  0  0  0  0  0  0
   15.9740   -1.5999   -2.9303 H   0  0  0  0  0  0  0  0  0  0  0  0
   12.6525   -3.9222   -0.5194 H   0  0  0  0  0  0  0  0  0  0  0  0
   12.2923   -2.2036   -0.8980 H   0  0  0  0  0  0  0  0  0  0  0  0
   17.5256   -3.8656   -0.3661 H   0  0  0  0  0  0  0  0  0  0  0  0
   16.6777   -3.8339   -1.9494 H   0  0  0  0  0  0  0  0  0  0  0  0
   14.7598   -0.7693   -0.2584 H   0  0  0  0  0  0  0  0  0  0  0  0
   13.9364   -0.7959   -1.8547 H   0  0  0  0  0  0  0  0  0  0  0  0
   17.1917   -1.4360   -0.1269 H   0  0  0  0  0  0  0  0  0  0  0  0
   18.0704   -1.8242   -1.6448 H   0  0  0  0  0  0  0  0  0  0  0  0
   15.1133   -4.5792   -0.2506 H   0  0  0  0  0  0  0  0  0  0  0  0
   15.7994   -2.3505    3.6301 H   0  0  0  0  0  0  0  0  0  0  0  0
   14.0631   -1.9565    3.7433 H   0  0  0  0  0  0  0  0  0  0  0  0
   16.6174   -3.1896    1.5490 H   0  0  0  0  0  0  0  0  0  0  0  0
  1  6  1  0  0  0  0
  1  8  1  0  0  0  0
  1 12  1  6  0  0  0
  2  9  1  1  0  0  0
  2 10  1  0  0  0  0
  3  7  1  0  0  0  0
  3 13  1  0  0  0  0
  3 14  1  0  0  0  0
  4  1  1  0  0  0  0
  4 11  1  0  0  0  0
  4 15  1  0  0  0  0
  4 16  1  0  0  0  0
  5  8  1  0  0  0  0
  5 17  1  0  0  0  0
  5 18  1  0  0  0  0
  6  3  1  0  0  0  0
  6 19  1  0  0  0  0
  6 20  1  0  0  0  0
  7  5  1  0  0  0  0
  7 21  1  0  0  0  0
  7 22  1  0  0  0  0
  8 10  1  0  0  0  0
  8 23  1  6  0  0  0
  9 24  1  0  0  0  0
  9 25  1  0  0  0  0
 10 26  1  0  0  0  0
 11  2  1  0  0  0  0
M  END
