4zsq_ligand
 OpenBabel08222323353D

 45 48  0  0  1  0  0  0  0  0999 V2000
   18.9830  -10.7930   -9.7340 C   0  0  2  0  0  0  0  0  0  0  0  0
   19.5160  -11.4090   -8.4530 C   0  0  0  0  0  0  0  0  0  0  0  0
   21.0340  -11.3690   -8.4430 C   0  0  1  0  0  0  0  0  0  0  0  0
   21.6020   -9.9690   -8.6560 C   0  0  2  0  0  0  0  0  0  0  0  0
   21.0010   -9.3480   -6.3850 C   0  0  1  0  0  3  0  0  0  0  0  0
   12.9640  -11.3470   -9.9700 C   0  0  0  0  0  0  0  0  0  0  0  0
   14.2390  -11.4370  -10.4920 C   0  0  0  0  0  0  0  0  0  0  0  0
   12.6820  -10.4960   -8.9200 C   0  0  0  0  0  0  0  0  0  0  0  0
   14.9730   -9.7910   -8.9010 C   0  0  0  0  0  0  0  0  0  0  0  0
   15.2360  -10.6590   -9.9500 C   0  0  0  0  0  0  0  0  0  0  0  0
   13.6890   -9.7200   -8.3930 C   0  0  0  0  0  0  0  0  0  0  0  0
   16.5960  -10.7740  -10.5080 C   0  0  0  0  0  0  0  0  0  0  0  0
   19.5900   -9.4300  -10.0380 C   0  0  0  0  0  0  0  0  0  0  0  0
   21.1010   -9.4220   -9.9860 C   0  0  0  0  0  0  0  0  0  0  0  0
   23.1360  -11.9800   -7.3610 C   0  0  0  0  0  0  0  0  0  0  0  0
   23.1240  -10.0500   -8.7240 C   0  0  0  0  0  0  0  0  0  0  0  0
   21.6150  -11.9680   -7.1840 C   0  0  1  0  0  0  0  0  0  0  0  0
   21.2120   -8.9850   -7.6150 N   0  0  0  0  0  0  0  0  0  0  0  0
   20.6610   -8.4280   -5.4330 N   0  0  0  0  0  0  0  0  0  0  0  0
   17.5650  -10.6290   -9.5430 N   0  0  0  0  0  0  0  0  0  0  0  0
   16.7660  -10.9970  -11.6990 O   0  0  0  0  0  0  0  0  0  0  0  0
   23.6520  -10.6640   -7.5420 O   0  0  0  0  0  0  0  0  0  0  0  0
   21.0870  -10.9920   -5.7330 S   0  0  0  0  0  0  0  0  0  0  0  0
   13.3090   -8.6520   -7.0960 Cl  0  0  0  0  0  0  0  0  0  0  0  0
   19.1810  -11.4708  -10.5775 H   0  0  0  0  0  0  0  0  0  0  0  0
   19.1798  -12.4542   -8.3853 H   0  0  0  0  0  0  0  0  0  0  0  0
   19.1321  -10.8437   -7.5910 H   0  0  0  0  0  0  0  0  0  0  0  0
   21.3714  -11.9883   -9.2872 H   0  0  0  0  0  0  0  0  0  0  0  0
   12.1713  -11.9545  -10.3915 H   0  0  0  0  0  0  0  0  0  0  0  0
   14.4511  -12.1095  -11.3153 H   0  0  0  0  0  0  0  0  0  0  0  0
   11.6781  -10.4397   -8.5150 H   0  0  0  0  0  0  0  0  0  0  0  0
   15.7632   -9.1766   -8.4850 H   0  0  0  0  0  0  0  0  0  0  0  0
   19.2117   -8.7071   -9.3002 H   0  0  0  0  0  0  0  0  0  0  0  0
   19.2740   -9.1243  -11.0463 H   0  0  0  0  0  0  0  0  0  0  0  0
   21.4927  -10.0462  -10.8026 H   0  0  0  0  0  0  0  0  0  0  0  0
   21.4601   -8.3896  -10.1090 H   0  0  0  0  0  0  0  0  0  0  0  0
   23.3883  -12.5870   -8.2429 H   0  0  0  0  0  0  0  0  0  0  0  0
   23.5963  -12.4242   -6.4662 H   0  0  0  0  0  0  0  0  0  0  0  0
   23.5358   -9.0343   -8.8179 H   0  0  0  0  0  0  0  0  0  0  0  0
   23.4150  -10.6463   -9.6013 H   0  0  0  0  0  0  0  0  0  0  0  0
   21.2560  -13.0007   -7.0627 H   0  0  0  0  0  0  0  0  0  0  0  0
   21.1064   -7.9935   -7.8730 H   0  0  0  0  0  0  0  0  0  0  0  0
   20.4965   -8.7287   -4.4617 H   0  0  0  0  0  0  0  0  0  0  0  0
   20.5693   -7.4340   -5.6869 H   0  0  0  0  0  0  0  0  0  0  0  0
   17.2563  -10.3872   -8.6231 H   0  0  0  0  0  0  0  0  0  0  0  0
  1  2  1  0  0  0  0
  1 13  1  0  0  0  0
  1 25  1  6  0  0  0
  2  3  1  0  0  0  0
  2 26  1  0  0  0  0
  2 27  1  0  0  0  0
  3  4  1  0  0  0  0
  3 17  1  0  0  0  0
  3 28  1  6  0  0  0
  4 14  1  6  0  0  0
  4 16  1  0  0  0  0
  4 18  1  0  0  0  0
  5 19  1  6  0  0  0
  5 23  1  0  0  0  0
  6  8  1  0  0  0  0
  6 29  1  0  0  0  0
  7  6  2  0  0  0  0
  7 30  1  0  0  0  0
  8 31  1  0  0  0  0
  9 11  1  0  0  0  0
  9 32  1  0  0  0  0
 10  7  1  0  0  0  0
 10  9  2  0  0  0  0
 11  8  2  0  0  0  0
 11 24  1  0  0  0  0
 12 10  1  0  0  0  0
 12 20  1  0  0  0  0
 12 21  2  0  0  0  0
 13 14  1  0  0  0  0
 13 33  1  0  0  0  0
 13 34  1  0  0  0  0
 14 35  1  0  0  0  0
 14 36  1  0  0  0  0
 15 22  1  0  0  0  0
 15 37  1  0  0  0  0
 15 38  1  0  0  0  0
 16 22  1  0  0  0  0
 16 39  1  0  0  0  0
 16 40  1  0  0  0  0
 17 15  1  0  0  0  0
 17 23  1  0  0  0  0
 17 41  1  1  0  0  0
 18  5  1  0  0  0  0
 18 42  1  0  0  0  0
 19 43  1  0  0  0  0
 19 44  1  0  0  0  0
 20  1  1  0  0  0  0
 20 45  1  0  0  0  0
M  END
