4zsr_ligand
 OpenBabel08222323353D

 45 48  0  0  1  0  0  0  0  0999 V2000
   22.2660   54.7010   89.7130 C   0  0  2  0  0  3  0  0  0  0  0  0
   20.0890   56.5010   86.2840 O   0  0  0  0  0  0  0  0  0  0  0  0
   20.1160   55.3240   87.1280 C   0  0  0  0  0  0  0  0  0  0  0  0
   21.6550   57.1890   88.7790 C   0  0  0  0  0  0  0  0  0  0  0  0
   22.1270   56.5320   87.4860 C   0  0  1  0  0  0  0  0  0  0  0  0
   21.3430   57.2070   86.3820 C   0  0  0  0  0  0  0  0  0  0  0  0
   30.3800   56.4510   86.1910 C   0  0  0  0  0  0  0  0  0  0  0  0
   29.0890   56.5280   85.7080 C   0  0  0  0  0  0  0  0  0  0  0  0
   30.6560   55.5960   87.2330 C   0  0  0  0  0  0  0  0  0  0  0  0
   28.3390   54.9100   87.2860 C   0  0  0  0  0  0  0  0  0  0  0  0
   28.0710   55.7770   86.2430 C   0  0  0  0  0  0  0  0  0  0  0  0
   29.6310   54.8350   87.7680 C   0  0  0  0  0  0  0  0  0  0  0  0
   26.6990   55.8950   85.6930 C   0  0  0  0  0  0  0  0  0  0  0  0
   23.7290   54.3130   86.3380 C   0  0  0  0  0  0  0  0  0  0  0  0
   22.2170   54.3450   86.2400 C   0  0  0  0  0  0  0  0  0  0  0  0
   23.6410   56.6620   87.2850 C   0  0  0  0  0  0  0  0  0  0  0  0
   24.3020   55.6980   86.2960 C   0  0  1  0  0  0  0  0  0  0  0  0
   21.5980   55.1180   87.3980 C   0  0  2  0  0  0  0  0  0  0  0  0
   21.8880   54.2580   88.5480 N   0  0  0  0  0  0  0  0  0  0  0  0
   22.5740   53.8150   90.7300 N   0  0  0  0  0  0  0  0  0  0  0  0
   25.7190   55.5860   86.6000 N   0  0  0  0  0  0  0  0  0  0  0  0
   26.5300   56.2160   84.5170 O   0  0  0  0  0  0  0  0  0  0  0  0
   22.3470   56.3810   90.2340 S   0  0  0  0  0  0  0  0  0  0  0  0
   30.0180   53.7660   89.0710 Cl  0  0  0  0  0  0  0  0  0  0  0  0
   19.6865   54.4558   86.6066 H   0  0  0  0  0  0  0  0  0  0  0  0
   19.5659   55.4984   88.0644 H   0  0  0  0  0  0  0  0  0  0  0  0
   20.5577   57.1305   88.8278 H   0  0  0  0  0  0  0  0  0  0  0  0
   21.9663   58.2440   88.7762 H   0  0  0  0  0  0  0  0  0  0  0  0
   21.1664   58.2636   86.6319 H   0  0  0  0  0  0  0  0  0  0  0  0
   21.8918   57.1419   85.4309 H   0  0  0  0  0  0  0  0  0  0  0  0
   31.1663   57.0565   85.7548 H   0  0  0  0  0  0  0  0  0  0  0  0
   28.8730   57.1991   84.8846 H   0  0  0  0  0  0  0  0  0  0  0  0
   31.6620   55.5194   87.6294 H   0  0  0  0  0  0  0  0  0  0  0  0
   27.5516   54.3019   87.7164 H   0  0  0  0  0  0  0  0  0  0  0  0
   24.1315   53.7320   85.4951 H   0  0  0  0  0  0  0  0  0  0  0  0
   24.0176   53.8334   87.2849 H   0  0  0  0  0  0  0  0  0  0  0  0
   21.8360   53.3132   86.2550 H   0  0  0  0  0  0  0  0  0  0  0  0
   21.9303   54.8280   85.2942 H   0  0  0  0  0  0  0  0  0  0  0  0
   24.1188   56.5103   88.2641 H   0  0  0  0  0  0  0  0  0  0  0  0
   23.8414   57.6849   86.9337 H   0  0  0  0  0  0  0  0  0  0  0  0
   24.1741   56.1029   85.2813 H   0  0  0  0  0  0  0  0  0  0  0  0
   21.7867   53.2401   88.4278 H   0  0  0  0  0  0  0  0  0  0  0  0
   22.8725   54.1701   91.6496 H   0  0  0  0  0  0  0  0  0  0  0  0
   22.5048   52.8002   90.5675 H   0  0  0  0  0  0  0  0  0  0  0  0
   25.9903   55.2702   87.5092 H   0  0  0  0  0  0  0  0  0  0  0  0
  1 19  1  0  0  0  0
  1 20  1  1  0  0  0
  3  2  1  0  0  0  0
  3 25  1  0  0  0  0
  3 26  1  0  0  0  0
  4 23  1  0  0  0  0
  4 27  1  0  0  0  0
  4 28  1  0  0  0  0
  5  4  1  1  0  0  0
  5  6  1  0  0  0  0
  5 18  1  0  0  0  0
  6  2  1  0  0  0  0
  6 29  1  0  0  0  0
  6 30  1  0  0  0  0
  7  9  1  0  0  0  0
  7 31  1  0  0  0  0
  8  7  2  0  0  0  0
  8 32  1  0  0  0  0
  9 33  1  0  0  0  0
 10 12  1  0  0  0  0
 10 34  1  0  0  0  0
 11  8  1  0  0  0  0
 11 10  2  0  0  0  0
 12  9  2  0  0  0  0
 12 24  1  0  0  0  0
 13 11  1  0  0  0  0
 13 22  2  0  0  0  0
 14 15  1  0  0  0  0
 14 35  1  0  0  0  0
 14 36  1  0  0  0  0
 15 18  1  0  0  0  0
 15 37  1  0  0  0  0
 15 38  1  0  0  0  0
 16  5  1  0  0  0  0
 16 39  1  0  0  0  0
 16 40  1  0  0  0  0
 17 14  1  0  0  0  0
 17 16  1  0  0  0  0
 17 21  1  0  0  0  0
 17 41  1  6  0  0  0
 18  3  1  6  0  0  0
 18 19  1  0  0  0  0
 19 42  1  0  0  0  0
 20 43  1  0  0  0  0
 20 44  1  0  0  0  0
 21 13  1  0  0  0  0
 21 45  1  0  0  0  0
 23  1  1  0  0  0  0
M  END
