4ztl_ligand
 OpenBabel08222323353D

 54 57  0  0  1  0  0  0  0  0999 V2000
   29.9840    8.3050   -8.3570 C   0  0  0  0  0  0  0  0  0  0  0  0
   29.3930    7.6580   -7.2890 N   0  0  0  0  0  0  0  0  0  0  0  0
   29.6400    6.3580   -7.0870 C   0  0  0  0  0  0  0  0  0  0  0  0
   30.4410    5.5940   -7.8700 N   0  0  0  0  0  0  0  0  0  0  0  0
   31.0480    6.1970   -8.9510 C   0  0  0  0  0  0  0  0  0  0  0  0
   30.8160    7.5820   -9.2960 C   0  0  0  0  0  0  0  0  0  0  0  0
   29.6700    9.6470   -8.4930 N   0  0  0  0  0  0  0  0  0  0  0  0
   29.0090    5.7600   -5.9890 N   0  0  0  0  0  0  0  0  0  0  0  0
   31.5340    8.2510  -10.4030 C   0  0  0  0  0  0  0  0  0  0  0  0
   28.8730   10.5060   -7.5910 C   0  0  1  0  0  0  0  0  0  0  0  0
   29.6580   10.9050   -6.3050 C   0  0  1  0  0  0  0  0  0  0  0  0
   30.4140   12.2200   -6.7180 C   0  0  1  0  0  0  0  0  0  0  0  0
   29.5890   12.8820   -7.8680 C   0  0  2  0  0  0  0  0  0  0  0  0
   28.4690   11.8580   -8.2210 C   0  0  0  0  0  0  0  0  0  0  0  0
   28.7590   11.1320   -5.1950 O   0  0  0  0  0  0  0  0  0  0  0  0
   30.7280   13.1220   -5.6730 O   0  0  0  0  0  0  0  0  0  0  0  0
   30.4830   13.1970   -9.1190 C   0  0  0  0  0  0  0  0  0  0  0  0
   29.7310   13.9110  -10.0950 O   0  0  0  0  0  0  0  0  0  0  0  0
   28.1300    6.4270   -4.9900 C   0  0  0  0  0  0  0  0  0  0  0  0
   27.4470    5.4410   -4.0280 C   0  0  0  0  0  0  0  0  0  0  0  0
   26.4460    6.1490   -3.1080 C   0  0  0  0  0  0  0  0  0  0  0  0
   32.8040    7.3900  -11.2790 S   0  0  0  0  0  0  0  0  0  0  0  0
   33.1780    8.8510  -12.1450 C   0  0  0  0  0  0  0  0  0  0  0  0
   32.3400    9.9150  -11.7180 C   0  0  0  0  0  0  0  0  0  0  0  0
   31.4520    9.5650  -10.7110 N   0  0  0  0  0  0  0  0  0  0  0  0
   34.1500    9.0430  -13.1350 C   0  0  0  0  0  0  0  0  0  0  0  0
   34.3100   10.3160  -13.7640 C   0  0  0  0  0  0  0  0  0  0  0  0
   33.4650   11.4070  -13.3820 C   0  0  0  0  0  0  0  0  0  0  0  0
   32.4980   11.2070  -12.3430 C   0  0  0  0  0  0  0  0  0  0  0  0
   31.7235    5.6118   -9.5644 H   0  0  0  0  0  0  0  0  0  0  0  0
   30.0415   10.1087   -9.3355 H   0  0  0  0  0  0  0  0  0  0  0  0
   29.1704    4.7511   -5.8589 H   0  0  0  0  0  0  0  0  0  0  0  0
   27.9665    9.9489   -7.3119 H   0  0  0  0  0  0  0  0  0  0  0  0
   30.3761   10.1183   -6.0303 H   0  0  0  0  0  0  0  0  0  0  0  0
   31.3806   11.9100   -7.1418 H   0  0  0  0  0  0  0  0  0  0  0  0
   29.1396   13.8204   -7.5111 H   0  0  0  0  0  0  0  0  0  0  0  0
   27.5067   12.1942   -7.8075 H   0  0  0  0  0  0  0  0  0  0  0  0
   28.3830   11.7547   -9.3127 H   0  0  0  0  0  0  0  0  0  0  0  0
   29.2546   11.4409   -4.4456 H   0  0  0  0  0  0  0  0  0  0  0  0
   31.2421   13.8412   -6.0208 H   0  0  0  0  0  0  0  0  0  0  0  0
   30.8417   12.2534   -9.5559 H   0  0  0  0  0  0  0  0  0  0  0  0
   31.3435   13.8067   -8.8062 H   0  0  0  0  0  0  0  0  0  0  0  0
   30.2830   14.0952  -10.8460 H   0  0  0  0  0  0  0  0  0  0  0  0
   27.3507    6.9861   -5.5285 H   0  0  0  0  0  0  0  0  0  0  0  0
   28.7403    7.1256   -4.3989 H   0  0  0  0  0  0  0  0  0  0  0  0
   28.2164    4.9544   -3.4105 H   0  0  0  0  0  0  0  0  0  0  0  0
   26.9138    4.6800   -4.6166 H   0  0  0  0  0  0  0  0  0  0  0  0
   25.9800    5.4122   -2.4371 H   0  0  0  0  0  0  0  0  0  0  0  0
   25.6685    6.6342   -3.7163 H   0  0  0  0  0  0  0  0  0  0  0  0
   26.9711    6.9086   -2.5103 H   0  0  0  0  0  0  0  0  0  0  0  0
   34.7879    8.2167  -13.4273 H   0  0  0  0  0  0  0  0  0  0  0  0
   35.0675   10.4551  -14.5268 H   0  0  0  0  0  0  0  0  0  0  0  0
   33.5553   12.3700  -13.8714 H   0  0  0  0  0  0  0  0  0  0  0  0
   31.8776   12.0361  -12.0225 H   0  0  0  0  0  0  0  0  0  0  0  0
  1  2  2  0  0  0  0
  1  6  1  0  0  0  0
  1  7  1  0  0  0  0
  2  3  1  0  0  0  0
  3  4  2  0  0  0  0
  3  8  1  0  0  0  0
  4  5  1  0  0  0  0
  5  6  2  0  0  0  0
  5 30  1  0  0  0  0
  6  9  1  0  0  0  0
  7 10  1  0  0  0  0
  7 31  1  0  0  0  0
  8 19  1  0  0  0  0
  8 32  1  0  0  0  0
  9 22  1  0  0  0  0
  9 25  2  0  0  0  0
 10 11  1  0  0  0  0
 10 14  1  0  0  0  0
 10 33  1  1  0  0  0
 11 12  1  0  0  0  0
 11 15  1  0  0  0  0
 11 34  1  1  0  0  0
 12 13  1  0  0  0  0
 12 16  1  0  0  0  0
 12 35  1  6  0  0  0
 13 14  1  0  0  0  0
 13 17  1  0  0  0  0
 13 36  1  1  0  0  0
 14 37  1  0  0  0  0
 14 38  1  0  0  0  0
 15 39  1  0  0  0  0
 16 40  1  0  0  0  0
 17 18  1  0  0  0  0
 17 41  1  0  0  0  0
 17 42  1  0  0  0  0
 18 43  1  0  0  0  0
 19 20  1  0  0  0  0
 19 44  1  0  0  0  0
 19 45  1  0  0  0  0
 20 21  1  0  0  0  0
 20 46  1  0  0  0  0
 20 47  1  0  0  0  0
 21 48  1  0  0  0  0
 21 49  1  0  0  0  0
 21 50  1  0  0  0  0
 22 23  1  0  0  0  0
 23 24  2  0  0  0  0
 23 26  1  0  0  0  0
 24 25  1  0  0  0  0
 24 29  1  0  0  0  0
 26 27  2  0  0  0  0
 26 51  1  0  0  0  0
 27 28  1  0  0  0  0
 27 52  1  0  0  0  0
 28 29  2  0  0  0  0
 28 53  1  0  0  0  0
 29 54  1  0  0  0  0
M  END
