4zum_ligand
 OpenBabel08222323353D

 40 39  0  0  0  0  0  0  0  0999 V2000
  -10.9610    0.4090  -28.1140 C   0  0  0  0  0  0  0  0  0  0  0  0
  -10.7140    1.3390  -26.9320 C   0  0  0  0  0  0  0  0  0  0  0  0
  -11.5800    2.5920  -27.0050 C   0  0  0  0  0  0  0  0  0  0  0  0
  -12.0470    4.7400  -25.7450 C   0  0  0  0  0  0  0  0  0  0  0  0
  -11.9790    5.5670  -27.0330 C   0  0  0  0  0  0  0  0  0  0  0  0
  -12.6560    6.9110  -26.7830 C   0  0  0  0  0  0  0  0  0  0  0  0
  -12.6940    7.7100  -28.0900 C   0  0  0  0  0  0  0  0  0  0  0  0
  -12.9810    9.1800  -27.7890 C   0  0  0  0  0  0  0  0  0  0  0  0
  -13.4420   10.0240  -28.9940 C   0  0  0  0  0  0  0  0  0  0  0  0
  -13.6520   11.4700  -28.5940 C   0  0  0  0  0  0  0  0  0  0  0  0
  -14.4840   11.5860  -27.5830 F   0  0  0  0  0  0  0  0  0  0  0  0
  -14.1470   12.1380  -29.6460 F   0  0  0  0  0  0  0  0  0  0  0  0
  -12.5270   12.0470  -28.2620 F   0  0  0  0  0  0  0  0  0  0  0  0
  -11.3340    3.4740  -25.8650 N   0  3  0  0  0  0  0  0  0  0  0  0
  -10.1590   -0.7930  -27.9400 N   0  3  0  0  0  0  0  0  0  0  0  0
  -12.4850    9.9720  -30.0320 O   0  0  0  0  0  0  0  0  0  0  0  0
  -14.6780    9.5370  -29.5360 O   0  0  0  0  0  0  0  0  0  0  0  0
  -10.6731    0.9136  -29.0481 H   0  0  0  0  0  0  0  0  0  0  0  0
  -12.0266    0.1396  -28.1562 H   0  0  0  0  0  0  0  0  0  0  0  0
   -9.6554    1.6378  -26.9295 H   0  0  0  0  0  0  0  0  0  0  0  0
  -10.9452    0.8005  -26.0011 H   0  0  0  0  0  0  0  0  0  0  0  0
  -12.6394    2.2960  -27.0071 H   0  0  0  0  0  0  0  0  0  0  0  0
  -11.3488    3.1339  -27.9339 H   0  0  0  0  0  0  0  0  0  0  0  0
  -13.1019    4.5318  -25.5130 H   0  0  0  0  0  0  0  0  0  0  0  0
  -11.5995    5.3223  -24.9261 H   0  0  0  0  0  0  0  0  0  0  0  0
  -12.4990    5.0349  -27.8432 H   0  0  0  0  0  0  0  0  0  0  0  0
  -10.9281    5.7280  -27.3153 H   0  0  0  0  0  0  0  0  0  0  0  0
  -12.0895    7.4725  -26.0255 H   0  0  0  0  0  0  0  0  0  0  0  0
  -13.6824    6.7443  -26.4244 H   0  0  0  0  0  0  0  0  0  0  0  0
  -13.4854    7.3091  -28.7404 H   0  0  0  0  0  0  0  0  0  0  0  0
  -11.7226    7.6243  -28.5989 H   0  0  0  0  0  0  0  0  0  0  0  0
  -12.0600    9.6311  -27.3913 H   0  0  0  0  0  0  0  0  0  0  0  0
  -13.7700    9.2220  -27.0237 H   0  0  0  0  0  0  0  0  0  0  0  0
  -10.3508    3.6958  -25.8776 H   0  0  0  0  0  0  0  0  0  0  0  0
  -11.5478    2.9419  -25.0360 H   0  0  0  0  0  0  0  0  0  0  0  0
  -10.3146   -1.4161  -28.7169 H   0  0  0  0  0  0  0  0  0  0  0  0
  -10.4237   -1.2524  -27.0827 H   0  0  0  0  0  0  0  0  0  0  0  0
   -9.1833   -0.5431  -27.9000 H   0  0  0  0  0  0  0  0  0  0  0  0
  -11.6501   10.2887  -29.7076 H   0  0  0  0  0  0  0  0  0  0  0  0
  -15.3478    9.5578  -28.8626 H   0  0  0  0  0  0  0  0  0  0  0  0
  1 15  1  0  0  0  0
  1 18  1  0  0  0  0
  1 19  1  0  0  0  0
  2  1  1  0  0  0  0
  2 20  1  0  0  0  0
  2 21  1  0  0  0  0
  3  2  1  0  0  0  0
  3 22  1  0  0  0  0
  3 23  1  0  0  0  0
  4  5  1  0  0  0  0
  4 14  1  0  0  0  0
  4 24  1  0  0  0  0
  4 25  1  0  0  0  0
  5  6  1  0  0  0  0
  5 26  1  0  0  0  0
  5 27  1  0  0  0  0
  6  7  1  0  0  0  0
  6 28  1  0  0  0  0
  6 29  1  0  0  0  0
  7  8  1  0  0  0  0
  7 30  1  0  0  0  0
  7 31  1  0  0  0  0
  8  9  1  0  0  0  0
  8 32  1  0  0  0  0
  8 33  1  0  0  0  0
  9 10  1  0  0  0  0
  9 16  1  0  0  0  0
  9 17  1  0  0  0  0
 10 11  1  0  0  0  0
 10 12  1  0  0  0  0
 10 13  1  0  0  0  0
 14  3  1  0  0  0  0
 14 34  1  0  0  0  0
 14 35  1  0  0  0  0
 15 36  1  0  0  0  0
 15 37  1  0  0  0  0
 15 38  1  0  0  0  0
 16 39  1  0  0  0  0
 17 40  1  0  0  0  0
M  CHG  2  14   1  15   1
M  END
