4zuo_ligand
 OpenBabel08222323353D

 37 36  0  0  0  0  0  0  0  0999 V2000
   -9.5530    0.8950  -27.5740 C   0  0  0  0  0  0  0  0  0  0  0  0
   -9.2880    2.2940  -28.1200 C   0  0  0  0  0  0  0  0  0  0  0  0
   -9.7470    3.3450  -27.1180 C   0  0  0  0  0  0  0  0  0  0  0  0
  -11.9210    4.1580  -26.0970 C   0  0  0  0  0  0  0  0  0  0  0  0
  -11.2610    5.5170  -26.1970 C   0  0  0  0  0  0  0  0  0  0  0  0
  -12.2640    6.6670  -26.1660 C   0  0  0  0  0  0  0  0  0  0  0  0
  -12.2560    7.3820  -27.5120 C   0  0  0  0  0  0  0  0  0  0  0  0
  -13.0240    8.6850  -27.3790 C   0  0  0  0  0  0  0  0  0  0  0  0
  -12.8550    9.5770  -28.5880 C   0  0  0  0  0  0  0  0  0  0  0  0
   -9.4260   -0.1000  -28.6240 N   0  3  0  0  0  0  0  0  0  0  0  0
  -11.1290    3.1200  -26.7390 N   0  3  0  0  0  0  0  0  0  0  0  0
  -13.9780   10.1830  -28.9250 N   0  0  0  0  0  0  0  0  0  0  0  0
  -11.7710    9.7200  -29.1780 O   0  0  0  0  0  0  0  0  0  0  0  0
  -14.0390   11.0930  -29.9660 O   0  0  0  0  0  0  0  0  0  0  0  0
  -10.5718    0.8558  -27.1612 H   0  0  0  0  0  0  0  0  0  0  0  0
   -8.8262    0.6746  -26.7783 H   0  0  0  0  0  0  0  0  0  0  0  0
   -9.8384    2.4263  -29.0632 H   0  0  0  0  0  0  0  0  0  0  0  0
   -8.2102    2.4140  -28.3044 H   0  0  0  0  0  0  0  0  0  0  0  0
   -9.6546    4.3425  -27.5725 H   0  0  0  0  0  0  0  0  0  0  0  0
   -9.1127    3.2906  -26.2209 H   0  0  0  0  0  0  0  0  0  0  0  0
  -12.9065    4.2049  -26.5834 H   0  0  0  0  0  0  0  0  0  0  0  0
  -12.0481    3.9020  -25.0348 H   0  0  0  0  0  0  0  0  0  0  0  0
  -10.6996    5.5661  -27.1417 H   0  0  0  0  0  0  0  0  0  0  0  0
  -10.5670    5.6335  -25.3515 H   0  0  0  0  0  0  0  0  0  0  0  0
  -11.9853    7.3758  -25.3723 H   0  0  0  0  0  0  0  0  0  0  0  0
  -13.2707    6.2708  -25.9669 H   0  0  0  0  0  0  0  0  0  0  0  0
  -12.7353    6.7463  -28.2711 H   0  0  0  0  0  0  0  0  0  0  0  0
  -11.2191    7.5932  -27.8122 H   0  0  0  0  0  0  0  0  0  0  0  0
  -12.6597    9.2211  -26.4903 H   0  0  0  0  0  0  0  0  0  0  0  0
  -14.0926    8.4548  -27.2560 H   0  0  0  0  0  0  0  0  0  0  0  0
   -9.6047   -1.0157  -28.2425 H   0  0  0  0  0  0  0  0  0  0  0  0
   -8.4927   -0.0706  -29.0037 H   0  0  0  0  0  0  0  0  0  0  0  0
  -10.0924    0.0955  -29.3546 H   0  0  0  0  0  0  0  0  0  0  0  0
  -11.1263    2.3337  -26.1083 H   0  0  0  0  0  0  0  0  0  0  0  0
  -11.6185    2.8710  -27.5842 H   0  0  0  0  0  0  0  0  0  0  0  0
  -14.8114    9.9781  -28.4118 H   0  0  0  0  0  0  0  0  0  0  0  0
  -14.9282   11.4166  -30.0506 H   0  0  0  0  0  0  0  0  0  0  0  0
  1 10  1  0  0  0  0
  1 15  1  0  0  0  0
  1 16  1  0  0  0  0
  2  1  1  0  0  0  0
  2 17  1  0  0  0  0
  2 18  1  0  0  0  0
  3  2  1  0  0  0  0
  3 19  1  0  0  0  0
  3 20  1  0  0  0  0
  4  5  1  0  0  0  0
  4 11  1  0  0  0  0
  4 21  1  0  0  0  0
  4 22  1  0  0  0  0
  5  6  1  0  0  0  0
  5 23  1  0  0  0  0
  5 24  1  0  0  0  0
  6  7  1  0  0  0  0
  6 25  1  0  0  0  0
  6 26  1  0  0  0  0
  7  8  1  0  0  0  0
  7 27  1  0  0  0  0
  7 28  1  0  0  0  0
  8  9  1  0  0  0  0
  8 29  1  0  0  0  0
  8 30  1  0  0  0  0
  9 12  1  0  0  0  0
  9 13  2  0  0  0  0
 10 31  1  0  0  0  0
 10 32  1  0  0  0  0
 10 33  1  0  0  0  0
 11  3  1  0  0  0  0
 11 34  1  0  0  0  0
 11 35  1  0  0  0  0
 12 14  1  0  0  0  0
 12 36  1  0  0  0  0
 14 37  1  0  0  0  0
M  CHG  2  10   1  11   1
M  END
