4zxx_ligand
 OpenBabel08222323353D

 77 81  0  0  1  0  0  0  0  0999 V2000
    8.3450   35.3290   26.5820 C   0  0  0  0  0  0  0  0  0  0  0  0
    7.2010   38.1390   24.3420 C   0  0  0  0  0  0  0  0  0  0  0  0
    7.0540   37.2810   25.6090 C   0  0  2  0  0  0  0  0  0  0  0  0
    9.3570   33.2790   27.3020 C   0  0  0  0  0  0  0  0  0  0  0  0
    5.7380   39.8710   22.1810 C   0  0  0  0  0  0  0  0  0  0  0  0
    4.5850   39.2450   22.6700 C   0  0  0  0  0  0  0  0  0  0  0  0
    3.5770   38.7720   21.8330 C   0  0  0  0  0  0  0  0  0  0  0  0
    3.7260   38.9120   20.4610 C   0  0  0  0  0  0  0  0  0  0  0  0
    8.5380   34.8690   28.9590 C   0  0  0  0  0  0  0  0  0  0  0  0
    8.1050   35.6880   27.8910 C   0  0  0  0  0  0  0  0  0  0  0  0
    1.8190   38.3100   23.5730 C   0  0  0  0  0  0  0  0  0  0  0  0
    6.8050   39.4240   24.3810 N   0  0  0  0  0  0  0  0  0  0  0  0
    6.8350   40.2500   23.1580 C   0  0  2  0  0  0  0  0  0  0  0  0
    6.6650   41.6640   23.7340 C   0  0  0  0  0  0  0  0  0  0  0  0
    5.7750   41.4460   24.9280 C   0  0  0  0  0  0  0  0  0  0  0  0
    6.3230   40.1890   25.5460 C   0  0  0  0  0  0  0  0  0  0  0  0
    9.6100   33.3690   31.0840 N   0  0  0  0  0  0  0  0  0  0  0  0
    9.0030   34.5440   31.2910 C   0  0  0  0  0  0  0  0  0  0  0  0
    8.4490   35.2980   30.3050 C   0  0  0  0  0  0  0  0  0  0  0  0
    9.6980   32.8890   29.7980 C   0  0  0  0  0  0  0  0  0  0  0  0
    9.1780   33.6270   28.6670 C   0  0  0  0  0  0  0  0  0  0  0  0
    8.9610   34.1120   26.3000 C   0  0  0  0  0  0  0  0  0  0  0  0
    7.9410   36.1310   25.5200 N   0  0  0  0  0  0  0  0  0  0  0  0
    7.7140   37.6630   23.3510 O   0  0  0  0  0  0  0  0  0  0  0  0
   10.3230   31.7070   29.6470 N   0  0  0  0  0  0  0  0  0  0  0  0
    4.8350   39.5620   19.9450 C   0  0  0  0  0  0  0  0  0  0  0  0
    5.8260   40.0390   20.7950 C   0  0  0  0  0  0  0  0  0  0  0  0
    7.1670   40.8690   19.9680 S   0  0  0  0  0  0  0  0  0  0  0  0
    6.6120   41.5360   18.8210 O   0  0  0  0  0  0  0  0  0  0  0  0
    7.9120   41.6470   20.9200 O   0  0  0  0  0  0  0  0  0  0  0  0
    8.2480   39.5470   19.3620 C   0  0  0  0  0  0  0  0  0  0  0  0
    8.9370   38.7710   20.4690 C   0  0  0  0  0  0  0  0  0  0  0  0
    9.2270   40.1080   18.3480 C   0  0  0  0  0  0  0  0  0  0  0  0
    2.3380   38.2750   22.3120 N   0  0  0  0  0  0  0  0  0  0  0  0
    2.1820   39.1110   24.4280 O   0  0  0  0  0  0  0  0  0  0  0  0
    5.6040   36.8340   25.7230 C   0  0  0  0  0  0  0  0  0  0  0  0
    4.9080   36.9770   26.9170 C   0  0  0  0  0  0  0  0  0  0  0  0
    3.5990   36.5370   27.0300 C   0  0  0  0  0  0  0  0  0  0  0  0
    2.9680   35.9550   25.9520 C   0  0  0  0  0  0  0  0  0  0  0  0
    3.6480   35.8030   24.7590 C   0  0  0  0  0  0  0  0  0  0  0  0
    4.9570   36.2380   24.6450 C   0  0  0  0  0  0  0  0  0  0  0  0
    0.7130   37.3310   23.8310 C   0  0  0  0  0  0  0  0  0  0  0  0
    7.3228   37.8777   26.4931 H   0  0  0  0  0  0  0  0  0  0  0  0
    9.8185   32.3305   27.0523 H   0  0  0  0  0  0  0  0  0  0  0  0
    4.4724   39.1238   23.7413 H   0  0  0  0  0  0  0  0  0  0  0  0
    2.9732   38.5120   19.7914 H   0  0  0  0  0  0  0  0  0  0  0  0
    7.5773   36.6105   28.1044 H   0  0  0  0  0  0  0  0  0  0  0  0
    7.8048   40.1548   22.6478 H   0  0  0  0  0  0  0  0  0  0  0  0
    6.1870   42.3326   23.0029 H   0  0  0  0  0  0  0  0  0  0  0  0
    7.6348   42.0854   24.0370 H   0  0  0  0  0  0  0  0  0  0  0  0
    4.7283   41.3087   24.6190 H   0  0  0  0  0  0  0  0  0  0  0  0
    5.8426   42.2911   25.6289 H   0  0  0  0  0  0  0  0  0  0  0  0
    7.1478   40.4164   26.2374 H   0  0  0  0  0  0  0  0  0  0  0  0
    5.5365   39.6377   26.0821 H   0  0  0  0  0  0  0  0  0  0  0  0
    8.9500   34.9171   32.3074 H   0  0  0  0  0  0  0  0  0  0  0  0
    7.9411   36.2242   30.5485 H   0  0  0  0  0  0  0  0  0  0  0  0
    9.1276   33.8238   25.2684 H   0  0  0  0  0  0  0  0  0  0  0  0
    8.3023   35.8891   24.5863 H   0  0  0  0  0  0  0  0  0  0  0  0
   10.4221   31.2930   28.7091 H   0  0  0  0  0  0  0  0  0  0  0  0
   10.7023   31.2162   30.4693 H   0  0  0  0  0  0  0  0  0  0  0  0
    4.9304   39.6992   18.8740 H   0  0  0  0  0  0  0  0  0  0  0  0
    7.6076   38.8276   18.8306 H   0  0  0  0  0  0  0  0  0  0  0  0
    9.5730   37.9894   20.0278 H   0  0  0  0  0  0  0  0  0  0  0  0
    8.1796   38.3051   21.1165 H   0  0  0  0  0  0  0  0  0  0  0  0
    9.5580   39.4558   21.0652 H   0  0  0  0  0  0  0  0  0  0  0  0
    9.8802   39.3013   17.9839 H   0  0  0  0  0  0  0  0  0  0  0  0
    9.8389   40.8893   18.8224 H   0  0  0  0  0  0  0  0  0  0  0  0
    8.6718   40.5401   17.5024 H   0  0  0  0  0  0  0  0  0  0  0  0
    1.7604   37.8345   21.6248 H   0  0  0  0  0  0  0  0  0  0  0  0
    5.3943   37.4377   27.7692 H   0  0  0  0  0  0  0  0  0  0  0  0
    3.0697   36.6509   27.9691 H   0  0  0  0  0  0  0  0  0  0  0  0
    1.9416   35.6176   26.0398 H   0  0  0  0  0  0  0  0  0  0  0  0
    3.1553   35.3421   23.9105 H   0  0  0  0  0  0  0  0  0  0  0  0
    5.4837   36.1130   23.7059 H   0  0  0  0  0  0  0  0  0  0  0  0
    0.3642   37.4371   24.8688 H   0  0  0  0  0  0  0  0  0  0  0  0
    1.0843   36.3079   23.6718 H   0  0  0  0  0  0  0  0  0  0  0  0
   -0.1209   37.5299   23.1418 H   0  0  0  0  0  0  0  0  0  0  0  0
  1 22  1  0  0  0  0
  1 23  1  0  0  0  0
  2 12  1  0  0  0  0
  2 24  2  0  0  0  0
  3  2  1  0  0  0  0
  3 36  1  0  0  0  0
  3 43  1  1  0  0  0
  4 22  2  0  0  0  0
  4 44  1  0  0  0  0
  5  6  2  0  0  0  0
  5 27  1  0  0  0  0
  6  7  1  0  0  0  0
  6 45  1  0  0  0  0
  7  8  2  0  0  0  0
  7 34  1  0  0  0  0
  8 26  1  0  0  0  0
  8 46  1  0  0  0  0
  9 10  1  0  0  0  0
  9 21  1  0  0  0  0
 10  1  2  0  0  0  0
 10 47  1  0  0  0  0
 11 35  2  0  0  0  0
 11 42  1  0  0  0  0
 12 13  1  0  0  0  0
 12 16  1  0  0  0  0
 13  5  1  0  0  0  0
 13 14  1  0  0  0  0
 13 48  1  6  0  0  0
 14 49  1  0  0  0  0
 14 50  1  0  0  0  0
 15 14  1  0  0  0  0
 15 51  1  0  0  0  0
 15 52  1  0  0  0  0
 16 15  1  0  0  0  0
 16 53  1  0  0  0  0
 16 54  1  0  0  0  0
 17 20  1  0  0  0  0
 18 17  2  0  0  0  0
 18 19  1  0  0  0  0
 18 55  1  0  0  0  0
 19  9  2  0  0  0  0
 19 56  1  0  0  0  0
 20 21  2  0  0  0  0
 20 25  1  0  0  0  0
 21  4  1  0  0  0  0
 22 57  1  0  0  0  0
 23  3  1  0  0  0  0
 23 58  1  0  0  0  0
 25 59  1  0  0  0  0
 25 60  1  0  0  0  0
 26 27  2  0  0  0  0
 26 61  1  0  0  0  0
 27 28  1  0  0  0  0
 28 29  2  0  0  0  0
 28 30  2  0  0  0  0
 28 31  1  0  0  0  0
 31 32  1  0  0  0  0
 31 33  1  0  0  0  0
 31 62  1  0  0  0  0
 32 63  1  0  0  0  0
 32 64  1  0  0  0  0
 32 65  1  0  0  0  0
 33 66  1  0  0  0  0
 33 67  1  0  0  0  0
 33 68  1  0  0  0  0
 34 11  1  0  0  0  0
 34 69  1  0  0  0  0
 36 37  2  0  0  0  0
 36 41  1  0  0  0  0
 37 38  1  0  0  0  0
 37 70  1  0  0  0  0
 38 39  2  0  0  0  0
 38 71  1  0  0  0  0
 39 40  1  0  0  0  0
 39 72  1  0  0  0  0
 40 41  2  0  0  0  0
 40 73  1  0  0  0  0
 41 74  1  0  0  0  0
 42 75  1  0  0  0  0
 42 76  1  0  0  0  0
 42 77  1  0  0  0  0
M  END
