4zy5_ligand
 OpenBabel08222323353D

 50 53  0  0  1  0  0  0  0  0999 V2000
   13.8640  -13.6780   15.4120 N   0  0  0  0  0  0  0  0  0  0  0  0
   12.9080  -12.9090   14.9080 C   0  0  0  0  0  0  0  0  0  0  0  0
   11.3900  -13.6170   16.4970 C   0  0  0  0  0  0  0  0  0  0  0  0
   14.4180  -12.4230   13.0470 C   0  0  0  0  0  0  0  0  0  0  0  0
   17.1120   -9.0120   13.1200 C   0  0  1  0  0  0  0  0  0  0  0  0
   15.6010   -8.7570   13.1880 C   0  0  0  0  0  0  0  0  0  0  0  0
   16.1550  -15.4650   15.0580 C   0  0  0  0  0  0  0  0  0  0  0  0
   17.7360  -15.3350   12.3810 C   0  0  0  0  0  0  0  0  0  0  0  0
   12.3620  -14.4260   17.0510 C   0  0  0  0  0  0  0  0  0  0  0  0
   13.6340  -14.4450   16.4680 C   0  0  0  0  0  0  0  0  0  0  0  0
   11.6920  -12.8800   15.4360 N   0  0  0  0  0  0  0  0  0  0  0  0
   13.2000  -12.1310   13.8000 N   0  0  0  0  0  0  0  0  0  0  0  0
   15.1650  -11.1400   12.6760 C   0  0  2  0  0  0  0  0  0  0  0  0
   16.6710  -11.4140   12.6840 C   0  0  0  0  0  0  0  0  0  0  0  0
   17.4050  -10.1750   12.1760 C   0  0  0  0  0  0  0  0  0  0  0  0
   14.8750  -10.0170   13.6710 C   0  0  0  0  0  0  0  0  0  0  0  0
   17.8050   -7.8070   12.6430 N   0  3  0  0  0  0  0  0  0  0  0  0
   14.6250  -15.2450   17.0200 N   0  0  0  0  0  0  0  0  0  0  0  0
   15.7710  -15.6790   16.3550 C   0  0  0  0  0  0  0  0  0  0  0  0
   16.7350  -16.4330   16.9380 N   0  0  0  0  0  0  0  0  0  0  0  0
   17.7260  -16.6800   15.9850 N   0  0  0  0  0  0  0  0  0  0  0  0
   17.3830  -16.1080   14.8600 C   0  0  0  0  0  0  0  0  0  0  0  0
   18.1990  -16.1540   13.5870 C   0  0  0  0  0  0  0  0  0  0  0  0
   18.9680  -14.8950   13.1780 C   0  0  0  0  0  0  0  0  0  0  0  0
   10.3938  -13.5845   16.9231 H   0  0  0  0  0  0  0  0  0  0  0  0
   14.1492  -12.9600   12.1254 H   0  0  0  0  0  0  0  0  0  0  0  0
   15.0758  -13.0554   13.6613 H   0  0  0  0  0  0  0  0  0  0  0  0
   17.4784   -9.2637   14.1262 H   0  0  0  0  0  0  0  0  0  0  0  0
   15.2325   -8.4859   12.1877 H   0  0  0  0  0  0  0  0  0  0  0  0
   15.4025   -7.9320   13.8880 H   0  0  0  0  0  0  0  0  0  0  0  0
   15.6027  -14.8952   14.3122 H   0  0  0  0  0  0  0  0  0  0  0  0
   16.8064  -14.7497   12.4378 H   0  0  0  0  0  0  0  0  0  0  0  0
   17.8539  -15.7382   11.3644 H   0  0  0  0  0  0  0  0  0  0  0  0
   12.1440  -15.0348   17.9210 H   0  0  0  0  0  0  0  0  0  0  0  0
   12.5738  -11.3650   13.5136 H   0  0  0  0  0  0  0  0  0  0  0  0
   14.8526  -10.8215   11.6705 H   0  0  0  0  0  0  0  0  0  0  0  0
   16.8937  -12.2690   12.0287 H   0  0  0  0  0  0  0  0  0  0  0  0
   16.9988  -11.6423   13.7089 H   0  0  0  0  0  0  0  0  0  0  0  0
   18.4874  -10.3695   12.1528 H   0  0  0  0  0  0  0  0  0  0  0  0
   17.0553   -9.9268   11.1630 H   0  0  0  0  0  0  0  0  0  0  0  0
   13.7921   -9.8294   13.7169 H   0  0  0  0  0  0  0  0  0  0  0  0
   15.2409  -10.2991   14.6692 H   0  0  0  0  0  0  0  0  0  0  0  0
   17.6114   -7.0391   13.2666 H   0  0  0  0  0  0  0  0  0  0  0  0
   17.4808   -7.5775   11.7166 H   0  0  0  0  0  0  0  0  0  0  0  0
   18.7981   -7.9779   12.6188 H   0  0  0  0  0  0  0  0  0  0  0  0
   14.5041  -15.5417   17.9989 H   0  0  0  0  0  0  0  0  0  0  0  0
   16.7365  -16.7655   17.9129 H   0  0  0  0  0  0  0  0  0  0  0  0
   18.6384  -17.1530   13.4497 H   0  0  0  0  0  0  0  0  0  0  0  0
   18.9231  -13.9941   13.8075 H   0  0  0  0  0  0  0  0  0  0  0  0
   19.9706  -14.9826   12.7341 H   0  0  0  0  0  0  0  0  0  0  0  0
  1  2  2  0  0  0  0
  2 11  1  0  0  0  0
  2 12  1  0  0  0  0
  3 11  2  0  0  0  0
  3 25  1  0  0  0  0
  4 13  1  0  0  0  0
  4 26  1  0  0  0  0
  4 27  1  0  0  0  0
  5 17  1  0  0  0  0
  5 28  1  1  0  0  0
  6  5  1  0  0  0  0
  6 29  1  0  0  0  0
  6 30  1  0  0  0  0
  7 19  2  0  0  0  0
  7 31  1  0  0  0  0
  8 24  1  0  0  0  0
  8 32  1  0  0  0  0
  8 33  1  0  0  0  0
  9  3  1  0  0  0  0
  9 34  1  0  0  0  0
 10  1  1  0  0  0  0
 10  9  2  0  0  0  0
 12  4  1  0  0  0  0
 12 35  1  0  0  0  0
 13 14  1  0  0  0  0
 13 16  1  0  0  0  0
 13 36  1  6  0  0  0
 14 15  1  0  0  0  0
 14 37  1  0  0  0  0
 14 38  1  0  0  0  0
 15  5  1  0  0  0  0
 15 39  1  0  0  0  0
 15 40  1  0  0  0  0
 16  6  1  0  0  0  0
 16 41  1  0  0  0  0
 16 42  1  0  0  0  0
 17 43  1  0  0  0  0
 17 44  1  0  0  0  0
 17 45  1  0  0  0  0
 18 10  1  0  0  0  0
 18 46  1  0  0  0  0
 19 18  1  0  0  0  0
 20 19  1  0  0  0  0
 20 47  1  0  0  0  0
 21 20  1  0  0  0  0
 22  7  1  0  0  0  0
 22 21  2  0  0  0  0
 22 23  1  0  0  0  0
 23  8  1  0  0  0  0
 23 24  1  0  0  0  0
 23 48  1  0  0  0  0
 24 49  1  0  0  0  0
 24 50  1  0  0  0  0
M  CHG  1  17   1
M  END
