5a0e_ligand
 OpenBabel08222323353D

218221  0  0  1  0  0  0  0  0999 V2000
   -8.4670    0.4320   26.9420 N   0  0  0  0  0  0  0  0  0  0  0  0
   -7.9990    0.2380   25.5680 C   0  0  2  0  0  0  0  0  0  0  0  0
   -8.8770    0.9990   24.6180 C   0  0  0  0  0  0  0  0  0  0  0  0
   -8.0020   -1.2380   25.3150 C   0  0  0  0  0  0  0  0  0  0  0  0
   -8.9840   -1.9200   25.6530 O   0  0  0  0  0  0  0  0  0  0  0  0
   -6.9210   -1.7510   24.6990 N   0  0  0  0  0  0  0  0  0  0  0  0
   -5.7320   -0.9600   24.2320 C   0  0  0  0  0  0  0  0  0  0  0  0
   -7.0010   -3.1600   24.2500 C   0  0  1  0  0  0  0  0  0  0  0  0
   -7.1360   -3.2750   22.7220 C   0  0  0  0  0  0  0  0  0  0  0  0
   -8.4250   -2.6830   22.1510 C   0  0  0  0  0  0  0  0  0  0  0  0
   -9.6910   -3.3570   22.6440 C   0  0  0  0  0  0  0  0  0  0  0  0
   -8.3370   -2.6920   20.5620 C   0  0  0  0  0  0  0  0  0  0  0  0
   -5.7520   -3.8400   24.7750 C   0  0  0  0  0  0  0  0  0  0  0  0
   -4.8510   -4.1900   23.9870 O   0  0  0  0  0  0  0  0  0  0  0  0
   -5.6240   -4.0540   26.1430 N   0  0  0  0  0  0  0  0  0  0  0  0
   -6.6180   -3.5970   27.1200 C   0  0  0  0  0  0  0  0  0  0  0  0
   -4.4310   -4.7190   26.5920 C   0  0  1  0  0  0  0  0  0  0  0  0
   -3.7120   -3.9230   27.6980 C   0  0  0  0  0  0  0  0  0  0  0  0
   -3.3480   -2.5340   27.1670 C   0  0  0  0  0  0  0  0  0  0  0  0
   -2.4380   -2.4780   25.9460 C   0  0  0  0  0  0  0  0  0  0  0  0
   -2.6240   -1.8240   28.3350 C   0  0  0  0  0  0  0  0  0  0  0  0
   -4.7200   -6.1440   27.1290 C   0  0  0  0  0  0  0  0  0  0  0  0
   -5.9050   -6.4460   27.2850 O   0  0  0  0  0  0  0  0  0  0  0  0
   -3.7130   -7.0020   27.3390 N   0  0  0  0  0  0  0  0  0  0  0  0
   -2.3110   -6.7560   26.9890 C   0  0  0  0  0  0  0  0  0  0  0  0
   -4.0170   -8.3540   27.8550 C   0  0  1  0  0  0  0  0  0  0  0  0
   -3.7520   -9.4770   26.8290 C   0  0  0  0  0  0  0  0  0  0  0  0
   -4.4420  -10.7180   27.3760 C   0  0  0  0  0  0  0  0  0  0  0  0
   -4.2830   -9.1090   25.4520 C   0  0  0  0  0  0  0  0  0  0  0  0
   -3.2560   -8.6110   29.1410 C   0  0  0  0  0  0  0  0  0  0  0  0
   -2.1620   -9.1730   29.1120 O   0  0  0  0  0  0  0  0  0  0  0  0
   -3.5530   -9.2240   32.5090 C   0  0  0  0  0  0  0  0  0  0  0  0
   -3.7810   -8.1470   30.2820 N   0  0  0  0  0  0  0  0  0  0  0  0
   -4.6770   -9.7070   32.3470 O   0  0  0  0  0  0  0  0  0  0  0  0
   -2.9720   -8.2290   31.4800 C   0  0  1  0  0  0  0  0  0  0  0  0
   -2.6750   -6.8530   32.1640 C   0  0  2  0  0  0  0  0  0  0  0  0
   -0.7710   -4.4600   32.6950 C   0  0  0  0  0  0  0  0  0  0  0  0
    0.4640   -4.0980   34.7470 C   0  0  0  0  0  0  0  0  0  0  0  0
   -5.1750   -7.6110   30.3580 C   0  0  0  0  0  0  0  0  0  0  0  0
   -0.7840   -4.1810   33.8670 C   0  0  0  0  0  0  0  0  0  0  0  0
    1.8410   -3.9840   34.1500 C   0  0  0  0  0  0  0  0  0  0  0  0
    3.4290   -2.4360   29.9560 C   0  0  0  0  0  0  0  0  0  0  0  0
    4.7420   -2.0980   30.2660 C   0  0  0  0  0  0  0  0  0  0  0  0
    2.5280   -2.5940   31.0610 C   0  0  0  0  0  0  0  0  0  0  0  0
    6.8500   -1.5300   33.1470 C   0  0  0  0  0  0  0  0  0  0  0  0
    5.9790   -1.8170   34.1700 C   0  0  0  0  0  0  0  0  0  0  0  0
    6.5020   -1.5760   31.8280 C   0  0  0  0  0  0  0  0  0  0  0  0
    4.6440   -2.1310   33.9410 C   0  0  0  0  0  0  0  0  0  0  0  0
    1.8990   -2.6600   33.4910 C   0  0  0  0  0  0  0  0  0  0  0  0
    5.1430   -1.9500   31.5940 C   0  0  0  0  0  0  0  0  0  0  0  0
    4.2600   -2.2500   32.6000 C   0  0  0  0  0  0  0  0  0  0  0  0
    2.9250   -2.4650   32.3480 N   0  0  0  0  0  0  0  0  0  0  0  0
   -0.9180   -6.3860   30.4310 C   0  0  0  0  0  0  0  0  0  0  0  0
   -1.9570   -4.5220   31.7510 C   0  0  0  0  0  0  0  0  0  0  0  0
   -3.8830   -6.4330   32.7840 O   0  0  0  0  0  0  0  0  0  0  0  0
   -2.1760   -5.8590   31.1250 C   0  0  2  0  0  0  0  0  0  0  0  0
   -2.7350   -9.4580   33.5310 N   0  0  0  0  0  0  0  0  0  0  0  0
   -3.0040  -10.4930   34.5550 C   0  0  2  0  0  0  0  0  0  0  0  0
   -3.0460   -9.8340   35.9340 C   0  0  0  0  0  0  0  0  0  0  0  0
   -1.9680   -9.8310   36.6050 O   0  0  0  0  0  0  0  0  0  0  0  0
   -1.9390  -11.5300   34.4770 C   0  0  0  0  0  0  0  0  0  0  0  0
   -1.8930  -12.2330   33.1690 C   0  0  0  0  0  0  0  0  0  0  0  0
   -4.1500   -9.1410   36.3010 N   0  0  0  0  0  0  0  0  0  0  0  0
   -4.2060   -8.4600   37.6290 C   0  0  0  0  0  0  0  0  0  0  0  0
   -4.5980   -7.0290   37.5150 C   0  0  0  0  0  0  0  0  0  0  0  0
   -5.7520   -6.7260   37.9490 O   0  0  0  0  0  0  0  0  0  0  0  0
   -5.3550   -8.9520   35.5050 C   0  0  0  0  0  0  0  0  0  0  0  0
   -3.8520   -6.1430   36.9890 N   0  0  0  0  0  0  0  0  0  0  0  0
   -2.5500   -6.5090   36.3620 C   0  0  0  0  0  0  0  0  0  0  0  0
   -4.3560   -4.7410   36.8320 C   0  0  1  0  0  0  0  0  0  0  0  0
   -3.3660   -3.6690   37.1390 C   0  0  0  0  0  0  0  0  0  0  0  0
   -2.7770   -3.8080   38.5250 C   0  0  0  0  0  0  0  0  0  0  0  0
   -3.8550   -3.9350   39.6260 C   0  0  0  0  0  0  0  0  0  0  0  0
   -1.8390   -2.6400   38.8260 C   0  0  0  0  0  0  0  0  0  0  0  0
   -4.9450   -4.6220   35.4600 C   0  0  0  0  0  0  0  0  0  0  0  0
   -4.1940   -4.4200   34.4960 O   0  0  0  0  0  0  0  0  0  0  0  0
   -6.2640   -4.7550   35.3110 N   0  0  0  0  0  0  0  0  0  0  0  0
   -6.8510   -4.7540   34.0440 C   0  0  2  0  0  0  0  0  0  0  0  0
   -7.0000   -3.3540   33.4640 C   0  0  0  0  0  0  0  0  0  0  0  0
   -7.4770   -2.4680   34.2350 O   0  0  0  0  0  0  0  0  0  0  0  0
   -8.2430   -5.3250   34.1950 C   0  0  0  0  0  0  0  0  0  0  0  0
   -8.9830   -5.3040   32.8680 C   0  0  0  0  0  0  0  0  0  0  0  0
   -8.2840   -6.6920   34.7760 C   0  0  0  0  0  0  0  0  0  0  0  0
   -6.5140   -2.9830   32.3110 N   0  0  0  0  0  0  0  0  0  0  0  0
   -5.9660   -3.9920   31.3640 C   0  0  0  0  0  0  0  0  0  0  0  0
   -6.3980   -1.5490   31.9430 C   0  0  1  0  0  0  0  0  0  0  0  0
   -4.9600   -1.0930   31.5770 C   0  0  0  0  0  0  0  0  0  0  0  0
   -4.0020   -1.4720   32.7420 C   0  0  0  0  0  0  0  0  0  0  0  0
   -4.3560   -0.8850   34.0460 C   0  0  0  0  0  0  0  0  0  0  0  0
   -2.5750   -1.1380   32.3440 C   0  0  0  0  0  0  0  0  0  0  0  0
   -7.3450   -1.2810   30.7300 C   0  0  0  0  0  0  0  0  0  0  0  0
   -7.9510   -2.1850   30.1480 O   0  0  0  0  0  0  0  0  0  0  0  0
   -7.5180    0.0020   30.4380 N   0  0  0  0  0  0  0  0  0  0  0  0
   -8.3160    0.4460   29.3320 C   0  0  2  0  0  0  0  0  0  0  0  0
   -7.6740    0.2040   27.9750 C   0  0  0  0  0  0  0  0  0  0  0  0
   -6.5650   -0.2120   27.8600 O   0  0  0  0  0  0  0  0  0  0  0  0
   -8.6590    1.9360   29.5330 C   0  0  0  0  0  0  0  0  0  0  0  0
   -8.2450    0.4170   26.9530 O   0  0  0  0  0  0  0  0  0  0  0  0
   -8.5199    0.8488   23.5885 H   0  0  0  0  0  0  0  0  0  0  0  0
   -8.8429    2.0703   24.8653 H   0  0  0  0  0  0  0  0  0  0  0  0
   -9.9117    0.6356   24.7038 H   0  0  0  0  0  0  0  0  0  0  0  0
   -5.7920    0.0629   24.6322 H   0  0  0  0  0  0  0  0  0  0  0  0
   -5.7245   -0.9237   23.1326 H   0  0  0  0  0  0  0  0  0  0  0  0
   -4.8090   -1.4399   24.5893 H   0  0  0  0  0  0  0  0  0  0  0  0
   -7.8846   -3.6330   24.7033 H   0  0  0  0  0  0  0  0  0  0  0  0
   -7.0997   -4.3411   22.4535 H   0  0  0  0  0  0  0  0  0  0  0  0
   -6.2848   -2.7517   22.2619 H   0  0  0  0  0  0  0  0  0  0  0  0
   -8.4760   -1.6342   22.4789 H   0  0  0  0  0  0  0  0  0  0  0  0
  -10.5663   -2.8723   22.1869 H   0  0  0  0  0  0  0  0  0  0  0  0
   -9.7520   -3.2669   23.7386 H   0  0  0  0  0  0  0  0  0  0  0  0
   -9.6730   -4.4206   22.3641 H   0  0  0  0  0  0  0  0  0  0  0  0
   -7.4083   -2.1960   20.2434 H   0  0  0  0  0  0  0  0  0  0  0  0
   -9.2013   -2.1553   20.1438 H   0  0  0  0  0  0  0  0  0  0  0  0
   -8.3405   -3.7309   20.2004 H   0  0  0  0  0  0  0  0  0  0  0  0
   -7.4550   -3.1152   26.5935 H   0  0  0  0  0  0  0  0  0  0  0  0
   -6.1523   -2.8746   27.8065 H   0  0  0  0  0  0  0  0  0  0  0  0
   -6.9922   -4.4584   27.6927 H   0  0  0  0  0  0  0  0  0  0  0  0
   -3.7534   -4.8052   25.7298 H   0  0  0  0  0  0  0  0  0  0  0  0
   -2.7960   -4.4539   27.9964 H   0  0  0  0  0  0  0  0  0  0  0  0
   -4.3767   -3.8209   28.5685 H   0  0  0  0  0  0  0  0  0  0  0  0
   -4.2789   -2.0033   26.9186 H   0  0  0  0  0  0  0  0  0  0  0  0
   -2.2573   -1.4283   25.6712 H   0  0  0  0  0  0  0  0  0  0  0  0
   -2.9195   -2.9993   25.1056 H   0  0  0  0  0  0  0  0  0  0  0  0
   -1.4802   -2.9658   26.1798 H   0  0  0  0  0  0  0  0  0  0  0  0
   -3.2610   -1.8503   29.2314 H   0  0  0  0  0  0  0  0  0  0  0  0
   -2.4216   -0.7785   28.0596 H   0  0  0  0  0  0  0  0  0  0  0  0
   -1.6746   -2.3384   28.5448 H   0  0  0  0  0  0  0  0  0  0  0  0
   -2.2008   -5.7260   26.6190 H   0  0  0  0  0  0  0  0  0  0  0  0
   -1.9993   -7.4624   26.2055 H   0  0  0  0  0  0  0  0  0  0  0  0
   -1.6808   -6.8949   27.8798 H   0  0  0  0  0  0  0  0  0  0  0  0
   -5.0911   -8.3780   28.0910 H   0  0  0  0  0  0  0  0  0  0  0  0
   -2.6700   -9.6590   26.7508 H   0  0  0  0  0  0  0  0  0  0  0  0
   -4.2877  -11.5586   26.6834 H   0  0  0  0  0  0  0  0  0  0  0  0
   -5.5194  -10.5224   27.4809 H   0  0  0  0  0  0  0  0  0  0  0  0
   -4.0177  -10.9703   28.3590 H   0  0  0  0  0  0  0  0  0  0  0  0
   -3.7643   -8.2102   25.0872 H   0  0  0  0  0  0  0  0  0  0  0  0
   -5.3626   -8.9083   25.5169 H   0  0  0  0  0  0  0  0  0  0  0  0
   -4.1061   -9.9423   24.7560 H   0  0  0  0  0  0  0  0  0  0  0  0
   -1.9994   -8.6321   31.1612 H   0  0  0  0  0  0  0  0  0  0  0  0
   -1.8980   -6.9787   32.9324 H   0  0  0  0  0  0  0  0  0  0  0  0
    0.2017   -4.6940   32.2648 H   0  0  0  0  0  0  0  0  0  0  0  0
    0.4684   -5.0074   35.3659 H   0  0  0  0  0  0  0  0  0  0  0  0
    0.3313   -3.2165   35.3915 H   0  0  0  0  0  0  0  0  0  0  0  0
   -5.6287   -7.6259   29.3560 H   0  0  0  0  0  0  0  0  0  0  0  0
   -5.1505   -6.5776   30.7340 H   0  0  0  0  0  0  0  0  0  0  0  0
   -5.7712   -8.2353   31.0397 H   0  0  0  0  0  0  0  0  0  0  0  0
   -1.7477   -3.9744   34.3301 H   0  0  0  0  0  0  0  0  0  0  0  0
    2.0041   -4.7839   33.4128 H   0  0  0  0  0  0  0  0  0  0  0  0
    2.6049   -4.0508   34.9386 H   0  0  0  0  0  0  0  0  0  0  0  0
    3.1015   -2.5737   28.9266 H   0  0  0  0  0  0  0  0  0  0  0  0
    5.4638   -1.9475   29.4646 H   0  0  0  0  0  0  0  0  0  0  0  0
    2.1091   -3.6071   30.9709 H   0  0  0  0  0  0  0  0  0  0  0  0
    1.7294   -1.8524   30.9122 H   0  0  0  0  0  0  0  0  0  0  0  0
    7.8667   -1.2525   33.4006 H   0  0  0  0  0  0  0  0  0  0  0  0
    6.3449   -1.7980   35.1902 H   0  0  0  0  0  0  0  0  0  0  0  0
    7.1965   -1.3485   31.0274 H   0  0  0  0  0  0  0  0  0  0  0  0
    3.9413   -2.2753   34.7537 H   0  0  0  0  0  0  0  0  0  0  0  0
    2.1293   -1.9167   34.2685 H   0  0  0  0  0  0  0  0  0  0  0  0
    0.9015   -2.4574   33.0740 H   0  0  0  0  0  0  0  0  0  0  0  0
   -0.5759   -5.6527   29.6858 H   0  0  0  0  0  0  0  0  0  0  0  0
   -1.1471   -7.3381   29.9301 H   0  0  0  0  0  0  0  0  0  0  0  0
   -0.1267   -6.5458   31.1782 H   0  0  0  0  0  0  0  0  0  0  0  0
   -1.7964   -3.7880   30.9477 H   0  0  0  0  0  0  0  0  0  0  0  0
   -2.8616   -4.2545   32.3167 H   0  0  0  0  0  0  0  0  0  0  0  0
   -3.7435   -5.5968   33.2127 H   0  0  0  0  0  0  0  0  0  0  0  0
   -2.9572   -5.7463   30.3588 H   0  0  0  0  0  0  0  0  0  0  0  0
   -1.9017   -8.9110   33.6114 H   0  0  0  0  0  0  0  0  0  0  0  0
   -3.9778  -10.9637   34.3545 H   0  0  0  0  0  0  0  0  0  0  0  0
   -2.1190  -12.2745   35.2665 H   0  0  0  0  0  0  0  0  0  0  0  0
   -0.9666  -11.0443   34.6458 H   0  0  0  0  0  0  0  0  0  0  0  0
   -1.0868  -12.9812   33.1830 H   0  0  0  0  0  0  0  0  0  0  0  0
   -1.7028  -11.5041   32.3674 H   0  0  0  0  0  0  0  0  0  0  0  0
   -2.8553  -12.7343   32.9881 H   0  0  0  0  0  0  0  0  0  0  0  0
   -3.2128   -8.5181   38.0983 H   0  0  0  0  0  0  0  0  0  0  0  0
   -4.9414   -8.9786   38.2616 H   0  0  0  0  0  0  0  0  0  0  0  0
   -5.2462   -9.4774   34.5447 H   0  0  0  0  0  0  0  0  0  0  0  0
   -5.5078   -7.8785   35.3203 H   0  0  0  0  0  0  0  0  0  0  0  0
   -6.2210   -9.3575   36.0487 H   0  0  0  0  0  0  0  0  0  0  0  0
   -2.3272   -7.5659   36.5700 H   0  0  0  0  0  0  0  0  0  0  0  0
   -1.7518   -5.8771   36.7787 H   0  0  0  0  0  0  0  0  0  0  0  0
   -2.6103   -6.3541   35.2746 H   0  0  0  0  0  0  0  0  0  0  0  0
   -5.1752   -4.6113   37.5546 H   0  0  0  0  0  0  0  0  0  0  0  0
   -3.8677   -2.6929   37.0647 H   0  0  0  0  0  0  0  0  0  0  0  0
   -2.5509   -3.7193   36.4021 H   0  0  0  0  0  0  0  0  0  0  0  0
   -2.1812   -4.7326   38.5390 H   0  0  0  0  0  0  0  0  0  0  0  0
   -3.3673   -4.0326   40.6071 H   0  0  0  0  0  0  0  0  0  0  0  0
   -4.4727   -4.8246   39.4335 H   0  0  0  0  0  0  0  0  0  0  0  0
   -4.4919   -3.0382   39.6208 H   0  0  0  0  0  0  0  0  0  0  0  0
   -1.0801   -2.5655   38.0332 H   0  0  0  0  0  0  0  0  0  0  0  0
   -1.3432   -2.8078   39.7935 H   0  0  0  0  0  0  0  0  0  0  0  0
   -2.4183   -1.7059   38.8679 H   0  0  0  0  0  0  0  0  0  0  0  0
   -6.8422   -4.8572   36.1205 H   0  0  0  0  0  0  0  0  0  0  0  0
   -6.2504   -5.3725   33.3608 H   0  0  0  0  0  0  0  0  0  0  0  0
   -8.7837   -4.6649   34.8891 H   0  0  0  0  0  0  0  0  0  0  0  0
   -9.9908   -5.7235   33.0035 H   0  0  0  0  0  0  0  0  0  0  0  0
   -8.4314   -5.9061   32.1310 H   0  0  0  0  0  0  0  0  0  0  0  0
   -9.0626   -4.2673   32.5089 H   0  0  0  0  0  0  0  0  0  0  0  0
   -7.7465   -6.6987   35.7357 H   0  0  0  0  0  0  0  0  0  0  0  0
   -7.8055   -7.3995   34.0829 H   0  0  0  0  0  0  0  0  0  0  0  0
   -9.3302   -6.9897   34.9396 H   0  0  0  0  0  0  0  0  0  0  0  0
   -6.1250   -5.0014   31.7712 H   0  0  0  0  0  0  0  0  0  0  0  0
   -4.8887   -3.8180   31.2257 H   0  0  0  0  0  0  0  0  0  0  0  0
   -6.4793   -3.9024   30.3952 H   0  0  0  0  0  0  0  0  0  0  0  0
   -6.7336   -0.9487   32.8015 H   0  0  0  0  0  0  0  0  0  0  0  0
   -4.9449   -0.0036   31.4256 H   0  0  0  0  0  0  0  0  0  0  0  0
   -4.6364   -1.5960   30.6538 H   0  0  0  0  0  0  0  0  0  0  0  0
   -4.0642   -2.5633   32.8651 H   0  0  0  0  0  0  0  0  0  0  0  0
   -3.6262   -1.2072   34.8034 H   0  0  0  0  0  0  0  0  0  0  0  0
   -5.3614   -1.2218   34.3390 H   0  0  0  0  0  0  0  0  0  0  0  0
   -4.3447    0.2123   33.9694 H   0  0  0  0  0  0  0  0  0  0  0  0
   -2.3505   -1.5931   31.3680 H   0  0  0  0  0  0  0  0  0  0  0  0
   -1.8813   -1.5328   33.1009 H   0  0  0  0  0  0  0  0  0  0  0  0
   -2.4596   -0.0463   32.2747 H   0  0  0  0  0  0  0  0  0  0  0  0
   -7.0731    0.6883   31.0135 H   0  0  0  0  0  0  0  0  0  0  0  0
   -9.2558   -0.1254   29.3507 H   0  0  0  0  0  0  0  0  0  0  0  0
   -9.2716    2.2882   28.6899 H   0  0  0  0  0  0  0  0  0  0  0  0
   -7.7299    2.5229   29.5815 H   0  0  0  0  0  0  0  0  0  0  0  0
   -9.2203    2.0598   30.4709 H   0  0  0  0  0  0  0  0  0  0  0  0
  1 95  1  0  0  0  0
  2  1  1  0  0  0  0
  2  3  1  6  0  0  0
  2 98  1  0  0  0  0
  3 99  1  0  0  0  0
  3100  1  0  0  0  0
  3101  1  0  0  0  0
  4  2  1  0  0  0  0
  4  5  2  0  0  0  0
  6  4  1  0  0  0  0
  6  7  1  0  0  0  0
  7102  1  0  0  0  0
  7103  1  0  0  0  0
  7104  1  0  0  0  0
  8  6  1  0  0  0  0
  8  9  1  0  0  0  0
  8105  1  1  0  0  0
  9 10  1  0  0  0  0
  9106  1  0  0  0  0
  9107  1  0  0  0  0
 10 11  1  0  0  0  0
 10 12  1  0  0  0  0
 10108  1  0  0  0  0
 11109  1  0  0  0  0
 11110  1  0  0  0  0
 11111  1  0  0  0  0
 12112  1  0  0  0  0
 12113  1  0  0  0  0
 12114  1  0  0  0  0
 13  8  1  0  0  0  0
 13 14  2  0  0  0  0
 15 13  1  0  0  0  0
 15 16  1  0  0  0  0
 16115  1  0  0  0  0
 16116  1  0  0  0  0
 16117  1  0  0  0  0
 17 15  1  0  0  0  0
 17 18  1  0  0  0  0
 17118  1  6  0  0  0
 18 19  1  0  0  0  0
 18119  1  0  0  0  0
 18120  1  0  0  0  0
 19 20  1  0  0  0  0
 19 21  1  0  0  0  0
 19121  1  0  0  0  0
 20122  1  0  0  0  0
 20123  1  0  0  0  0
 20124  1  0  0  0  0
 21125  1  0  0  0  0
 21126  1  0  0  0  0
 21127  1  0  0  0  0
 22 17  1  0  0  0  0
 22 23  2  0  0  0  0
 24 22  1  0  0  0  0
 24 25  1  0  0  0  0
 25128  1  0  0  0  0
 25129  1  0  0  0  0
 25130  1  0  0  0  0
 26 24  1  0  0  0  0
 26 27  1  0  0  0  0
 26131  1  1  0  0  0
 27 28  1  0  0  0  0
 27 29  1  0  0  0  0
 27132  1  0  0  0  0
 28133  1  0  0  0  0
 28134  1  0  0  0  0
 28135  1  0  0  0  0
 29136  1  0  0  0  0
 29137  1  0  0  0  0
 29138  1  0  0  0  0
 30 26  1  0  0  0  0
 30 31  2  0  0  0  0
 32 34  2  0  0  0  0
 32 57  1  0  0  0  0
 33 30  1  0  0  0  0
 33 39  1  0  0  0  0
 35 32  1  0  0  0  0
 35 33  1  0  0  0  0
 35139  1  6  0  0  0
 36 35  1  0  0  0  0
 36 55  1  0  0  0  0
 36140  1  1  0  0  0
 37 40  2  0  0  0  0
 37141  1  0  0  0  0
 38 41  1  0  0  0  0
 38142  1  0  0  0  0
 38143  1  0  0  0  0
 39144  1  0  0  0  0
 39145  1  0  0  0  0
 39146  1  0  0  0  0
 40 38  1  0  0  0  0
 40147  1  0  0  0  0
 41 49  1  0  0  0  0
 41148  1  0  0  0  0
 41149  1  0  0  0  0
 42 43  2  0  0  0  0
 42150  1  0  0  0  0
 43151  1  0  0  0  0
 44 42  1  0  0  0  0
 44152  1  0  0  0  0
 44153  1  0  0  0  0
 45154  1  0  0  0  0
 46 45  2  0  0  0  0
 46155  1  0  0  0  0
 47 45  1  0  0  0  0
 47156  1  0  0  0  0
 48 46  1  0  0  0  0
 48157  1  0  0  0  0
 49 52  1  0  0  0  0
 49158  1  0  0  0  0
 49159  1  0  0  0  0
 50 43  1  0  0  0  0
 50 47  2  0  0  0  0
 51 48  2  0  0  0  0
 51 50  1  0  0  0  0
 52 44  1  0  0  0  0
 52 51  1  0  0  0  0
 53160  1  0  0  0  0
 53161  1  0  0  0  0
 53162  1  0  0  0  0
 54 37  1  0  0  0  0
 54 56  1  0  0  0  0
 54163  1  0  0  0  0
 54164  1  0  0  0  0
 55165  1  0  0  0  0
 56 36  1  0  0  0  0
 56 53  1  0  0  0  0
 56166  1  6  0  0  0
 57 58  1  0  0  0  0
 57167  1  0  0  0  0
 58 59  1  0  0  0  0
 58 61  1  0  0  0  0
 58168  1  6  0  0  0
 59 60  2  0  0  0  0
 59 63  1  0  0  0  0
 61 62  1  0  0  0  0
 61169  1  0  0  0  0
 61170  1  0  0  0  0
 62171  1  0  0  0  0
 62172  1  0  0  0  0
 62173  1  0  0  0  0
 63 64  1  0  0  0  0
 63 67  1  0  0  0  0
 64 65  1  0  0  0  0
 64174  1  0  0  0  0
 64175  1  0  0  0  0
 65 66  2  0  0  0  0
 65 68  1  0  0  0  0
 67176  1  0  0  0  0
 67177  1  0  0  0  0
 67178  1  0  0  0  0
 68 69  1  0  0  0  0
 68 70  1  0  0  0  0
 69179  1  0  0  0  0
 69180  1  0  0  0  0
 69181  1  0  0  0  0
 70 71  1  0  0  0  0
 70 75  1  0  0  0  0
 70182  1  1  0  0  0
 71 72  1  0  0  0  0
 71183  1  0  0  0  0
 71184  1  0  0  0  0
 72 73  1  0  0  0  0
 72 74  1  0  0  0  0
 72185  1  0  0  0  0
 73186  1  0  0  0  0
 73187  1  0  0  0  0
 73188  1  0  0  0  0
 74189  1  0  0  0  0
 74190  1  0  0  0  0
 74191  1  0  0  0  0
 75 76  2  0  0  0  0
 75 77  1  0  0  0  0
 77 78  1  0  0  0  0
 77192  1  0  0  0  0
 78 79  1  0  0  0  0
 78 81  1  0  0  0  0
 78193  1  6  0  0  0
 79 80  2  0  0  0  0
 79 84  1  0  0  0  0
 81 82  1  0  0  0  0
 81 83  1  0  0  0  0
 81194  1  0  0  0  0
 82195  1  0  0  0  0
 82196  1  0  0  0  0
 82197  1  0  0  0  0
 83198  1  0  0  0  0
 83199  1  0  0  0  0
 83200  1  0  0  0  0
 84 85  1  0  0  0  0
 84 86  1  0  0  0  0
 85201  1  0  0  0  0
 85202  1  0  0  0  0
 85203  1  0  0  0  0
 86 87  1  0  0  0  0
 86 91  1  0  0  0  0
 86204  1  1  0  0  0
 87 88  1  0  0  0  0
 87205  1  0  0  0  0
 87206  1  0  0  0  0
 88 89  1  0  0  0  0
 88 90  1  0  0  0  0
 88207  1  0  0  0  0
 89208  1  0  0  0  0
 89209  1  0  0  0  0
 89210  1  0  0  0  0
 90211  1  0  0  0  0
 90212  1  0  0  0  0
 90213  1  0  0  0  0
 91 92  2  0  0  0  0
 91 93  1  0  0  0  0
 93 94  1  0  0  0  0
 93214  1  0  0  0  0
 94 95  1  0  0  0  0
 94 97  1  0  0  0  0
 94215  1  1  0  0  0
 95 96  2  0  0  0  0
 97216  1  0  0  0  0
 97217  1  0  0  0  0
 97218  1  0  0  0  0
 98  1  1  0  0  0  0
M  END
