5a2k_ligand
 OpenBabel08222323353D

 91 92  0  0  1  0  0  0  0  0999 V2000
   13.9590   13.2810    1.1800 N   0  3  0  0  0  0  0  0  0  0  0  0
   13.7960   14.2660    2.2410 C   0  0  2  0  0  0  0  0  0  0  0  0
   13.6350   13.8070    3.7010 C   0  0  0  0  0  0  0  0  0  0  0  0
   13.5430   14.6840    4.5370 O   0  0  0  0  0  0  0  0  0  0  0  0
   12.6930   15.2390    1.8820 C   0  0  0  0  0  0  0  0  0  0  0  0
   13.6440   12.4730    4.0260 N   0  0  0  0  0  0  0  0  0  0  0  0
   14.0190   12.1290    5.4190 C   0  0  2  0  0  0  0  0  0  0  0  0
   15.5550   12.1980    5.5660 C   0  0  0  0  0  0  0  0  0  0  0  0
   16.2280   12.9160    4.7740 O   0  0  0  0  0  0  0  0  0  0  0  0
   13.4630   10.7060    5.5980 C   0  0  0  0  0  0  0  0  0  0  0  0
   13.5790   10.1180    4.2340 C   0  0  0  0  0  0  0  0  0  0  0  0
   13.2570   11.2630    3.2790 C   0  0  0  0  0  0  0  0  0  0  0  0
   16.1150   11.5060    6.5550 N   0  0  0  0  0  0  0  0  0  0  0  0
   17.5550   11.5110    6.7790 C   0  0  2  0  0  0  0  0  0  0  0  0
   18.2350   10.6030    5.7700 C   0  0  0  0  0  0  0  0  0  0  0  0
   18.4710    9.4110    6.0360 O   0  0  0  0  0  0  0  0  0  0  0  0
   17.9330   11.0470    8.1710 C   0  0  0  0  0  0  0  0  0  0  0  0
   19.3960   11.3290    8.4950 C   0  0  0  0  0  0  0  0  0  0  0  0
   20.0910   11.8890    7.6140 O   0  5  0  0  0  0  0  0  0  0  0  0
   19.8440   11.0050    9.6100 O   0  0  0  0  0  0  0  0  0  0  0  0
   18.5700   11.1930    4.6300 N   0  0  0  0  0  0  0  0  0  0  0  0
   19.2360   10.4730    3.5390 C   0  0  2  0  0  0  0  0  0  0  0  0
   20.7610   10.4650    3.6550 C   0  0  0  0  0  0  0  0  0  0  0  0
   21.4490   10.0800    2.7060 O   0  0  0  0  0  0  0  0  0  0  0  0
   18.8450   11.0890    2.1990 C   0  0  2  0  0  0  0  0  0  0  0  0
   18.9050   12.5310    2.2780 O   0  0  0  0  0  0  0  0  0  0  0  0
   17.4190   10.6780    1.8370 C   0  0  0  0  0  0  0  0  0  0  0  0
   21.3030   10.8970    4.7870 N   0  0  0  0  0  0  0  0  0  0  0  0
   22.7360   10.8420    4.9710 C   0  0  2  0  0  0  0  0  0  0  0  0
   23.2090    9.3970    4.9450 C   0  0  0  0  0  0  0  0  0  0  0  0
   22.6480    8.5500    5.6300 O   0  0  0  0  0  0  0  0  0  0  0  0
   23.1610   11.4870    6.2840 C   0  0  0  0  0  0  0  0  0  0  0  0
   24.6460   11.2800    6.5670 C   0  0  0  0  0  0  0  0  0  0  0  0
   25.0260   11.8320    7.9180 C   0  0  0  0  0  0  0  0  0  0  0  0
   25.1240   13.2680    7.8050 N   0  0  0  0  0  0  0  0  0  0  0  0
   26.2610   13.9580    7.7610 C   0  0  0  0  0  3  0  0  0  0  0  0
   27.4430   13.3550    7.8690 N   0  0  0  0  0  0  0  0  0  0  0  0
   26.1990   15.2790    7.6320 N   0  0  0  0  0  0  0  0  0  0  0  0
   24.2730    9.1020    4.1650 N   0  0  0  0  0  0  0  0  0  0  0  0
   24.7810    7.7230    4.1170 C   0  0  2  0  0  0  0  0  0  0  0  0
   25.2390    7.1240    5.4640 C   0  0  0  0  0  0  0  0  0  0  0  0
   25.8880    7.8130    6.2610 O   0  5  0  0  0  0  0  0  0  0  0  0
   25.9550    7.8140    3.1170 C   0  0  0  0  0  0  0  0  0  0  0  0
   26.2550    9.2610    2.9810 C   0  0  0  0  0  0  0  0  0  0  0  0
   24.9570    9.9670    3.1890 C   0  0  0  0  0  0  0  0  0  0  0  0
   24.9580    5.9530    5.7500 O   0  0  0  0  0  0  0  0  0  0  0  0
   14.0499   13.7533    0.2942 H   0  0  0  0  0  0  0  0  0  0  0  0
   13.1534   12.6756    1.1568 H   0  0  0  0  0  0  0  0  0  0  0  0
   14.7865   12.7326    1.3548 H   0  0  0  0  0  0  0  0  0  0  0  0
   14.7349   14.8391    2.2327 H   0  0  0  0  0  0  0  0  0  0  0  0
   12.5785   15.9775    2.6891 H   0  0  0  0  0  0  0  0  0  0  0  0
   11.7487   14.6905    1.7503 H   0  0  0  0  0  0  0  0  0  0  0  0
   12.9504   15.7560    0.9458 H   0  0  0  0  0  0  0  0  0  0  0  0
   13.5528   12.8177    6.1389 H   0  0  0  0  0  0  0  0  0  0  0  0
   12.4140   10.7315    5.9280 H   0  0  0  0  0  0  0  0  0  0  0  0
   14.0622   10.1374    6.3243 H   0  0  0  0  0  0  0  0  0  0  0  0
   12.8607    9.2948    4.1059 H   0  0  0  0  0  0  0  0  0  0  0  0
   14.5991    9.7451    4.0597 H   0  0  0  0  0  0  0  0  0  0  0  0
   13.8408   11.1734    2.3510 H   0  0  0  0  0  0  0  0  0  0  0  0
   12.1841   11.2798    3.0371 H   0  0  0  0  0  0  0  0  0  0  0  0
   15.5310   10.9670    7.1620 H   0  0  0  0  0  0  0  0  0  0  0  0
   17.9212   12.5392    6.6423 H   0  0  0  0  0  0  0  0  0  0  0  0
   17.7567    9.9636    8.2433 H   0  0  0  0  0  0  0  0  0  0  0  0
   17.3008   11.5710    8.9029 H   0  0  0  0  0  0  0  0  0  0  0  0
   18.3610   12.1635    4.5100 H   0  0  0  0  0  0  0  0  0  0  0  0
   18.8882    9.4297    3.5628 H   0  0  0  0  0  0  0  0  0  0  0  0
   19.5381   10.7354    1.4215 H   0  0  0  0  0  0  0  0  0  0  0  0
   18.6599   12.9034    1.4392 H   0  0  0  0  0  0  0  0  0  0  0  0
   17.1428   11.1248    0.8705 H   0  0  0  0  0  0  0  0  0  0  0  0
   16.7268   11.0313    2.6154 H   0  0  0  0  0  0  0  0  0  0  0  0
   17.3605    9.5820    1.7643 H   0  0  0  0  0  0  0  0  0  0  0  0
   20.7197   11.2608    5.5132 H   0  0  0  0  0  0  0  0  0  0  0  0
   23.2131   11.3873    4.1434 H   0  0  0  0  0  0  0  0  0  0  0  0
   22.5777   11.0421    7.1036 H   0  0  0  0  0  0  0  0  0  0  0  0
   22.9563   12.5665    6.2322 H   0  0  0  0  0  0  0  0  0  0  0  0
   25.2339   11.7929    5.7916 H   0  0  0  0  0  0  0  0  0  0  0  0
   24.8690   10.2031    6.5439 H   0  0  0  0  0  0  0  0  0  0  0  0
   25.9947   11.4159    8.2317 H   0  0  0  0  0  0  0  0  0  0  0  0
   24.2565   11.5681    8.6584 H   0  0  0  0  0  0  0  0  0  0  0  0
   24.2439   13.8007    7.7544 H   0  0  0  0  0  0  0  0  0  0  0  0
   28.3097   13.9103    7.8320 H   0  0  0  0  0  0  0  0  0  0  0  0
   27.4908   12.3332    7.9895 H   0  0  0  0  0  0  0  0  0  0  0  0
   25.2847   15.7459    7.5484 H   0  0  0  0  0  0  0  0  0  0  0  0
   27.0652   15.8361    7.6156 H   0  0  0  0  0  0  0  0  0  0  0  0
   23.9954    7.0665    3.7146 H   0  0  0  0  0  0  0  0  0  0  0  0
   25.6645    7.3895    2.1447 H   0  0  0  0  0  0  0  0  0  0  0  0
   26.8320    7.2753    3.5050 H   0  0  0  0  0  0  0  0  0  0  0  0
   26.6521    9.4772    1.9782 H   0  0  0  0  0  0  0  0  0  0  0  0
   26.9868    9.5734    3.7405 H   0  0  0  0  0  0  0  0  0  0  0  0
   25.1151   10.9768    3.5957 H   0  0  0  0  0  0  0  0  0  0  0  0
   24.3871   10.0347    2.2506 H   0  0  0  0  0  0  0  0  0  0  0  0
  1  2  1  0  0  0  0
  1 47  1  0  0  0  0
  1 48  1  0  0  0  0
  1 49  1  0  0  0  0
  2  3  1  0  0  0  0
  2  5  1  0  0  0  0
  2 50  1  6  0  0  0
  3  4  2  0  0  0  0
  3  6  1  0  0  0  0
  5 51  1  0  0  0  0
  5 52  1  0  0  0  0
  5 53  1  0  0  0  0
  6  7  1  0  0  0  0
  6 12  1  0  0  0  0
  7  8  1  0  0  0  0
  7 10  1  0  0  0  0
  7 54  1  1  0  0  0
  8  9  2  0  0  0  0
  8 13  1  0  0  0  0
 10 11  1  0  0  0  0
 10 55  1  0  0  0  0
 10 56  1  0  0  0  0
 11 12  1  0  0  0  0
 11 57  1  0  0  0  0
 11 58  1  0  0  0  0
 12 59  1  0  0  0  0
 12 60  1  0  0  0  0
 13 14  1  0  0  0  0
 13 61  1  0  0  0  0
 14 15  1  0  0  0  0
 14 17  1  0  0  0  0
 14 62  1  6  0  0  0
 15 16  2  0  0  0  0
 15 21  1  0  0  0  0
 17 18  1  0  0  0  0
 17 63  1  0  0  0  0
 17 64  1  0  0  0  0
 18 19  1  0  0  0  0
 18 20  2  0  0  0  0
 21 22  1  0  0  0  0
 21 65  1  0  0  0  0
 22 23  1  0  0  0  0
 22 25  1  0  0  0  0
 22 66  1  1  0  0  0
 23 24  2  0  0  0  0
 23 28  1  0  0  0  0
 25 26  1  0  0  0  0
 25 27  1  0  0  0  0
 25 67  1  6  0  0  0
 26 68  1  0  0  0  0
 27 69  1  0  0  0  0
 27 70  1  0  0  0  0
 27 71  1  0  0  0  0
 28 29  1  0  0  0  0
 28 72  1  0  0  0  0
 29 30  1  0  0  0  0
 29 32  1  0  0  0  0
 29 73  1  6  0  0  0
 30 31  2  0  0  0  0
 30 39  1  0  0  0  0
 32 33  1  0  0  0  0
 32 74  1  0  0  0  0
 32 75  1  0  0  0  0
 33 34  1  0  0  0  0
 33 76  1  0  0  0  0
 33 77  1  0  0  0  0
 34 35  1  0  0  0  0
 34 78  1  0  0  0  0
 34 79  1  0  0  0  0
 35 36  1  0  0  0  0
 35 80  1  0  0  0  0
 36 37  1  0  0  0  0
 36 38  1  0  0  0  0
 37 81  1  0  0  0  0
 37 82  1  0  0  0  0
 38 83  1  0  0  0  0
 38 84  1  0  0  0  0
 39 40  1  0  0  0  0
 39 45  1  0  0  0  0
 40 41  1  0  0  0  0
 40 43  1  0  0  0  0
 40 85  1  6  0  0  0
 41 42  1  0  0  0  0
 41 46  2  0  0  0  0
 43 44  1  0  0  0  0
 43 86  1  0  0  0  0
 43 87  1  0  0  0  0
 44 45  1  0  0  0  0
 44 88  1  0  0  0  0
 44 89  1  0  0  0  0
 45 90  1  0  0  0  0
 45 91  1  0  0  0  0
M  CHG  3   1   1  19  -1  42  -1
M  END
