5a3h_ligand
 OpenBabel08222323353D

 43 44  0  0  1  0  0  0  0  0999 V2000
   62.5070   41.6540   35.0240 C   0  0  0  0  0  0  0  0  0  0  0  0
   61.0930   42.0430   34.7490 C   0  0  1  0  0  0  0  0  0  0  0  0
   61.0240   43.5370   34.5370 C   0  0  2  0  0  0  0  0  0  0  0  0
   61.6800   44.2340   35.7610 C   0  0  1  0  0  0  0  0  0  0  0  0
   63.1290   43.7630   35.8750 C   0  0  1  0  0  0  0  0  0  0  0  0
   63.7780   44.3540   37.1730 C   0  0  0  0  0  0  0  0  0  0  0  0
   60.7000   41.3620   33.5910 F   0  0  0  0  0  0  0  0  0  0  0  0
   59.6600   43.9120   34.4010 O   0  0  0  0  0  0  0  0  0  0  0  0
   61.6790   45.6440   35.4850 O   0  0  0  0  0  0  0  0  0  0  0  0
   63.1550   42.3410   36.0810 O   0  0  0  0  0  0  0  0  0  0  0  0
   63.0180   43.8560   38.2780 O   0  0  0  0  0  0  0  0  0  0  0  0
   61.2130   46.3670   36.6410 C   0  0  1  0  0  0  0  0  0  0  0  0
   61.4640   47.8370   36.2900 C   0  0  1  0  0  0  0  0  0  0  0  0
   60.9080   48.6850   37.4480 C   0  0  2  0  0  0  0  0  0  0  0  0
   59.4010   48.4100   37.5040 C   0  0  1  0  0  0  0  0  0  0  0  0
   59.2350   46.9030   37.8520 C   0  0  1  0  0  0  0  0  0  0  0  0
   57.7780   46.4790   37.9720 C   0  0  0  0  0  0  0  0  0  0  0  0
   62.8610   47.9710   36.2240 O   0  0  0  0  0  0  0  0  0  0  0  0
   61.1050   50.0790   37.0540 O   0  0  0  0  0  0  0  0  0  0  0  0
   58.9620   49.1990   38.6320 O   0  0  0  0  0  0  0  0  0  0  0  0
   59.8420   46.1910   36.7650 O   0  0  0  0  0  0  0  0  0  0  0  0
   57.1650   46.8180   36.7380 O   0  0  0  0  0  0  0  0  0  0  0  0
   63.0870   41.8290   34.1059 H   0  0  0  0  0  0  0  0  0  0  0  0
   62.5181   40.5810   35.2658 H   0  0  0  0  0  0  0  0  0  0  0  0
   60.4463   41.7586   35.5921 H   0  0  0  0  0  0  0  0  0  0  0  0
   61.5707   43.8122   33.6230 H   0  0  0  0  0  0  0  0  0  0  0  0
   61.1260   44.0120   36.6850 H   0  0  0  0  0  0  0  0  0  0  0  0
   63.6961   44.0496   34.9771 H   0  0  0  0  0  0  0  0  0  0  0  0
   63.7375   45.4530   37.1501 H   0  0  0  0  0  0  0  0  0  0  0  0
   64.8251   44.0272   37.2555 H   0  0  0  0  0  0  0  0  0  0  0  0
   59.2855   43.4721   33.6468 H   0  0  0  0  0  0  0  0  0  0  0  0
   63.0547   42.9067   38.2839 H   0  0  0  0  0  0  0  0  0  0  0  0
   61.7390   46.0614   37.5574 H   0  0  0  0  0  0  0  0  0  0  0  0
   60.9910   48.1164   35.3370 H   0  0  0  0  0  0  0  0  0  0  0  0
   61.3999   48.4563   38.4049 H   0  0  0  0  0  0  0  0  0  0  0  0
   58.8795   48.6765   36.5729 H   0  0  0  0  0  0  0  0  0  0  0  0
   59.7528   46.6802   38.7966 H   0  0  0  0  0  0  0  0  0  0  0  0
   57.2914   47.0157   38.7997 H   0  0  0  0  0  0  0  0  0  0  0  0
   57.7092   45.3952   38.1470 H   0  0  0  0  0  0  0  0  0  0  0  0
   63.0840   48.8830   36.0794 H   0  0  0  0  0  0  0  0  0  0  0  0
   62.0353   50.2672   37.0142 H   0  0  0  0  0  0  0  0  0  0  0  0
   58.0493   49.0086   38.8141 H   0  0  0  0  0  0  0  0  0  0  0  0
   57.5996   46.3543   36.0319 H   0  0  0  0  0  0  0  0  0  0  0  0
  1  2  1  0  0  0  0
  1 10  1  0  0  0  0
  1 23  1  0  0  0  0
  1 24  1  0  0  0  0
  2  3  1  0  0  0  0
  2  7  1  0  0  0  0
  2 25  1  1  0  0  0
  3  4  1  0  0  0  0
  3  8  1  0  0  0  0
  3 26  1  6  0  0  0
  4  5  1  0  0  0  0
  4  9  1  0  0  0  0
  4 27  1  1  0  0  0
  5  6  1  0  0  0  0
  5 10  1  0  0  0  0
  5 28  1  6  0  0  0
  6 11  1  0  0  0  0
  6 29  1  0  0  0  0
  6 30  1  0  0  0  0
  8 31  1  0  0  0  0
  9 12  1  0  0  0  0
 11 32  1  0  0  0  0
 12 13  1  0  0  0  0
 12 21  1  0  0  0  0
 12 33  1  1  0  0  0
 13 14  1  0  0  0  0
 13 18  1  0  0  0  0
 13 34  1  6  0  0  0
 14 15  1  0  0  0  0
 14 19  1  0  0  0  0
 14 35  1  1  0  0  0
 15 16  1  0  0  0  0
 15 20  1  0  0  0  0
 15 36  1  6  0  0  0
 16 17  1  0  0  0  0
 16 21  1  0  0  0  0
 16 37  1  1  0  0  0
 17 22  1  0  0  0  0
 17 38  1  0  0  0  0
 17 39  1  0  0  0  0
 18 40  1  0  0  0  0
 19 41  1  0  0  0  0
 20 42  1  0  0  0  0
 22 43  1  0  0  0  0
M  END
