5a5o_ligand
 OpenBabel08222323353D

 21 22  0  0  0  0  0  0  0  0999 V2000
  -23.6520   44.8880    9.7640 C   0  0  0  0  0  0  0  0  0  0  0  0
  -24.9580   44.9750   10.5080 C   0  0  0  0  0  0  0  0  0  0  0  0
  -25.8370   45.9540   10.2410 C   0  0  0  0  0  0  0  0  0  0  0  0
  -27.0900   46.0640   10.9350 C   0  0  0  0  0  0  0  0  0  0  0  0
  -28.0310   47.0690   10.6860 C   0  0  0  0  0  0  0  0  0  0  0  0
  -29.2210   47.1130   11.3930 C   0  0  0  0  0  0  0  0  0  0  0  0
  -29.4930   46.1640   12.3560 C   0  0  0  0  0  0  0  0  0  0  0  0
  -28.5800   45.1540   12.6250 C   0  0  0  0  0  0  0  0  0  0  0  0
  -27.3780   45.1040   11.9170 C   0  0  0  0  0  0  0  0  0  0  0  0
  -26.4460   44.1020   12.1700 N   0  0  0  0  0  0  0  0  0  0  0  0
  -25.2530   43.9720   11.5320 C   0  0  0  0  0  0  0  0  0  0  0  0
  -24.5040   43.0450   11.8360 O   0  0  0  0  0  0  0  0  0  0  0  0
  -23.5891   45.7105    9.0363 H   0  0  0  0  0  0  0  0  0  0  0  0
  -23.5947   43.9253    9.2350 H   0  0  0  0  0  0  0  0  0  0  0  0
  -22.8179   44.9648   10.4770 H   0  0  0  0  0  0  0  0  0  0  0  0
  -25.5925   46.6877    9.4743 H   0  0  0  0  0  0  0  0  0  0  0  0
  -27.8266   47.8207    9.9322 H   0  0  0  0  0  0  0  0  0  0  0  0
  -29.9416   47.8966   11.1886 H   0  0  0  0  0  0  0  0  0  0  0  0
  -30.4259   46.2072   12.9063 H   0  0  0  0  0  0  0  0  0  0  0  0
  -28.7990   44.4082   13.3806 H   0  0  0  0  0  0  0  0  0  0  0  0
  -26.6707   43.4276   12.8734 H   0  0  0  0  0  0  0  0  0  0  0  0
  1  2  1  0  0  0  0
  1 13  1  0  0  0  0
  1 14  1  0  0  0  0
  1 15  1  0  0  0  0
  2  3  2  0  0  0  0
  2 11  1  0  0  0  0
  3  4  1  0  0  0  0
  3 16  1  0  0  0  0
  4  5  2  0  0  0  0
  4  9  1  0  0  0  0
  5  6  1  0  0  0  0
  5 17  1  0  0  0  0
  6  7  2  0  0  0  0
  6 18  1  0  0  0  0
  7  8  1  0  0  0  0
  7 19  1  0  0  0  0
  8  9  2  0  0  0  0
  8 20  1  0  0  0  0
  9 10  1  0  0  0  0
 10 11  1  0  0  0  0
 10 21  1  0  0  0  0
 11 12  2  0  0  0  0
M  END
