5a5p_ligand
 OpenBabel08222323353D

 38 39  0  0  0  0  0  0  0  0999 V2000
  -31.5890   42.1200   16.5490 C   0  0  0  0  0  0  0  0  0  0  0  0
  -30.7080   42.1660   15.3850 N   0  3  0  0  0  0  0  0  0  0  0  0
  -29.3150   42.0880   15.8140 C   0  0  0  0  0  0  0  0  0  0  0  0
  -30.9580   43.3760   14.5980 C   0  0  0  0  0  0  0  0  0  0  0  0
  -30.3610   43.2990   13.2070 C   0  0  0  0  0  0  0  0  0  0  0  0
  -29.0510   43.9300   13.1850 N   0  0  0  0  0  0  0  0  0  0  0  0
  -28.6960   44.9820   12.3760 C   0  0  0  0  0  0  0  0  0  0  0  0
  -29.5250   46.0820   12.1440 C   0  0  0  0  0  0  0  0  0  0  0  0
  -29.1220   47.1250   11.3260 C   0  0  0  0  0  0  0  0  0  0  0  0
  -27.8770   47.1040   10.7270 C   0  0  0  0  0  0  0  0  0  0  0  0
  -27.0080   46.0300   10.9350 C   0  0  0  0  0  0  0  0  0  0  0  0
  -25.7010   45.9270   10.3500 C   0  0  0  0  0  0  0  0  0  0  0  0
  -24.8810   44.8750   10.5700 C   0  0  0  0  0  0  0  0  0  0  0  0
  -23.5150   44.7970    9.9440 C   0  0  0  0  0  0  0  0  0  0  0  0
  -25.3240   43.7840   11.4380 C   0  0  0  0  0  0  0  0  0  0  0  0
  -24.6550   42.7850   11.7010 O   0  0  0  0  0  0  0  0  0  0  0  0
  -26.5670   43.9080   11.9670 N   0  0  0  0  0  0  0  0  0  0  0  0
  -27.4270   44.9750   11.7640 C   0  0  0  0  0  0  0  0  0  0  0  0
  -31.3864   41.2058   17.1262 H   0  0  0  0  0  0  0  0  0  0  0  0
  -32.6373   42.1184   16.2157 H   0  0  0  0  0  0  0  0  0  0  0  0
  -31.4068   43.0011   17.1818 H   0  0  0  0  0  0  0  0  0  0  0  0
  -30.9053   41.3667   14.8034 H   0  0  0  0  0  0  0  0  0  0  0  0
  -28.6575   42.1232   14.9328 H   0  0  0  0  0  0  0  0  0  0  0  0
  -29.1507   41.1454   16.3567 H   0  0  0  0  0  0  0  0  0  0  0  0
  -29.0870   42.9366   16.4757 H   0  0  0  0  0  0  0  0  0  0  0  0
  -30.5171   44.2358   15.1237 H   0  0  0  0  0  0  0  0  0  0  0  0
  -32.0448   43.5195   14.5076 H   0  0  0  0  0  0  0  0  0  0  0  0
  -31.0246   43.8156   12.4980 H   0  0  0  0  0  0  0  0  0  0  0  0
  -30.2606   42.2438   12.9130 H   0  0  0  0  0  0  0  0  0  0  0  0
  -28.3342   43.5597   13.8252 H   0  0  0  0  0  0  0  0  0  0  0  0
  -30.5017   46.1203   12.6126 H   0  0  0  0  0  0  0  0  0  0  0  0
  -29.7878   47.9631   11.1547 H   0  0  0  0  0  0  0  0  0  0  0  0
  -27.5722   47.9271   10.0909 H   0  0  0  0  0  0  0  0  0  0  0  0
  -25.3554   46.7306    9.7014 H   0  0  0  0  0  0  0  0  0  0  0  0
  -23.3430   45.6911    9.3267 H   0  0  0  0  0  0  0  0  0  0  0  0
  -23.4515   43.8982    9.3131 H   0  0  0  0  0  0  0  0  0  0  0  0
  -22.7518   44.7449   10.7345 H   0  0  0  0  0  0  0  0  0  0  0  0
  -26.8902   43.1656   12.5538 H   0  0  0  0  0  0  0  0  0  0  0  0
  1  2  1  0  0  0  0
  1 19  1  0  0  0  0
  1 20  1  0  0  0  0
  1 21  1  0  0  0  0
  2  3  1  0  0  0  0
  2  4  1  0  0  0  0
  2 22  1  0  0  0  0
  3 23  1  0  0  0  0
  3 24  1  0  0  0  0
  3 25  1  0  0  0  0
  4  5  1  0  0  0  0
  4 26  1  0  0  0  0
  4 27  1  0  0  0  0
  5  6  1  0  0  0  0
  5 28  1  0  0  0  0
  5 29  1  0  0  0  0
  6  7  1  0  0  0  0
  6 30  1  0  0  0  0
  7  8  2  0  0  0  0
  7 18  1  0  0  0  0
  8  9  1  0  0  0  0
  8 31  1  0  0  0  0
  9 10  2  0  0  0  0
  9 32  1  0  0  0  0
 10 11  1  0  0  0  0
 10 33  1  0  0  0  0
 11 12  1  0  0  0  0
 11 18  2  0  0  0  0
 12 13  2  0  0  0  0
 12 34  1  0  0  0  0
 13 14  1  0  0  0  0
 13 15  1  0  0  0  0
 14 35  1  0  0  0  0
 14 36  1  0  0  0  0
 14 37  1  0  0  0  0
 15 16  2  0  0  0  0
 15 17  1  0  0  0  0
 17 18  1  0  0  0  0
 17 38  1  0  0  0  0
M  CHG  1   2   1
M  END
