5a82_ligand
 OpenBabel08222323353D

 58 61  0  0  1  0  0  0  0  0999 V2000
  -24.3110   42.6350   12.1170 O   0  0  0  0  0  0  0  0  0  0  0  0
  -25.1030   43.4970   11.7470 C   0  0  0  0  0  0  0  0  0  0  0  0
  -24.8340   44.4940   10.7330 C   0  0  0  0  0  0  0  0  0  0  0  0
  -23.4900   44.5010   10.0570 C   0  0  0  0  0  0  0  0  0  0  0  0
  -26.3430   43.5730   12.2770 N   0  0  0  0  0  0  0  0  0  0  0  0
  -27.3270   44.4870   11.9440 C   0  0  0  0  0  0  0  0  0  0  0  0
  -27.0180   45.4480   10.9700 C   0  0  0  0  0  0  0  0  0  0  0  0
  -25.7210   45.4340   10.3440 C   0  0  0  0  0  0  0  0  0  0  0  0
  -28.5960   44.3970   12.5570 C   0  0  0  0  0  0  0  0  0  0  0  0
  -29.5290   45.3130   12.2190 N   0  0  0  0  0  0  0  0  0  0  0  0
  -29.2410   46.2530   11.3020 C   0  0  0  0  0  0  0  0  0  0  0  0
  -28.0270   46.3630   10.6490 C   0  0  0  0  0  0  0  0  0  0  0  0
  -28.9570   43.4300   13.4180 N   0  0  0  0  0  0  0  0  0  0  0  0
  -30.2540   43.2440   14.0330 C   0  0  1  0  0  0  0  0  0  0  0  0
  -30.9430   42.1840   13.1870 C   0  0  1  0  0  0  0  0  0  0  0  0
  -32.3260   41.8310   13.8040 C   0  0  0  0  0  0  0  0  0  0  0  0
  -32.2040   41.3500   15.1780 N   0  3  0  0  0  0  0  0  0  0  0  0
  -31.4130   42.2230   16.0560 C   0  0  0  0  0  0  0  0  0  0  0  0
  -30.1230   42.7590   15.4730 C   0  0  0  0  0  0  0  0  0  0  0  0
  -31.1380   42.7320   11.8770 O   0  0  0  0  0  0  0  0  0  0  0  0
  -31.3210   41.7600   10.8430 C   0  0  0  0  0  0  0  0  0  0  0  0
  -31.2230   42.5050    9.5350 C   0  0  0  0  0  0  0  0  0  0  0  0
  -31.5550   41.5690    8.3790 C   0  0  0  0  0  0  0  0  0  0  0  0
  -31.5400   42.2780    7.0220 C   0  0  0  0  0  0  0  0  0  0  0  0
  -29.9100   42.8510    6.6670 S   0  0  0  0  0  0  0  0  0  0  0  0
  -29.9390   43.6640    5.4820 O   0  0  0  0  0  0  0  0  0  0  0  0
  -28.9990   41.7390    6.7080 O   0  0  0  0  0  0  0  0  0  0  0  0
  -29.6280   43.8820    8.0710 C   0  0  0  0  0  0  0  0  0  0  0  0
  -29.8230   43.0700    9.3330 C   0  0  0  0  0  0  0  0  0  0  0  0
  -23.4547   45.3165    9.3197 H   0  0  0  0  0  0  0  0  0  0  0  0
  -23.3307   43.5391    9.5477 H   0  0  0  0  0  0  0  0  0  0  0  0
  -22.7019   44.6526   10.8093 H   0  0  0  0  0  0  0  0  0  0  0  0
  -26.5731   42.9010   12.9809 H   0  0  0  0  0  0  0  0  0  0  0  0
  -25.4628   46.1627    9.5770 H   0  0  0  0  0  0  0  0  0  0  0  0
  -30.0130   46.9738   11.0579 H   0  0  0  0  0  0  0  0  0  0  0  0
  -27.8614   47.1371    9.9085 H   0  0  0  0  0  0  0  0  0  0  0  0
  -28.2296   42.7450   13.6680 H   0  0  0  0  0  0  0  0  0  0  0  0
  -30.8240   44.1846   14.0156 H   0  0  0  0  0  0  0  0  0  0  0  0
  -30.3185   41.2802   13.1319 H   0  0  0  0  0  0  0  0  0  0  0  0
  -32.7978   41.0469   13.1936 H   0  0  0  0  0  0  0  0  0  0  0  0
  -32.9583   42.7311   13.7974 H   0  0  0  0  0  0  0  0  0  0  0  0
  -31.7657   40.4426   15.1571 H   0  0  0  0  0  0  0  0  0  0  0  0
  -33.1302   41.2669   15.5669 H   0  0  0  0  0  0  0  0  0  0  0  0
  -31.1608   41.6506   16.9608 H   0  0  0  0  0  0  0  0  0  0  0  0
  -32.0414   43.0833   16.3296 H   0  0  0  0  0  0  0  0  0  0  0  0
  -29.7857   43.6021   16.0938 H   0  0  0  0  0  0  0  0  0  0  0  0
  -29.3699   41.9578   15.5021 H   0  0  0  0  0  0  0  0  0  0  0  0
  -32.3090   41.2857   10.9374 H   0  0  0  0  0  0  0  0  0  0  0  0
  -30.5375   40.9901   10.9017 H   0  0  0  0  0  0  0  0  0  0  0  0
  -31.9446   43.3352    9.5456 H   0  0  0  0  0  0  0  0  0  0  0  0
  -32.5572   41.1470    8.5445 H   0  0  0  0  0  0  0  0  0  0  0  0
  -30.8136   40.7566    8.3598 H   0  0  0  0  0  0  0  0  0  0  0  0
  -32.2303   43.1340    7.0492 H   0  0  0  0  0  0  0  0  0  0  0  0
  -31.8587   41.5746    6.2386 H   0  0  0  0  0  0  0  0  0  0  0  0
  -30.3393   44.7210    8.0600 H   0  0  0  0  0  0  0  0  0  0  0  0
  -28.6001   44.2723    8.0401 H   0  0  0  0  0  0  0  0  0  0  0  0
  -29.1170   42.2269    9.3068 H   0  0  0  0  0  0  0  0  0  0  0  0
  -29.5904   43.7165   10.1921 H   0  0  0  0  0  0  0  0  0  0  0  0
  1  2  2  0  0  0  0
  2  3  1  0  0  0  0
  2  5  1  0  0  0  0
  3  4  1  0  0  0  0
  3  8  2  0  0  0  0
  4 30  1  0  0  0  0
  4 31  1  0  0  0  0
  4 32  1  0  0  0  0
  5  6  1  0  0  0  0
  5 33  1  0  0  0  0
  6  7  2  0  0  0  0
  6  9  1  0  0  0  0
  7  8  1  0  0  0  0
  7 12  1  0  0  0  0
  8 34  1  0  0  0  0
  9 10  2  0  0  0  0
  9 13  1  0  0  0  0
 10 11  1  0  0  0  0
 11 12  2  0  0  0  0
 11 35  1  0  0  0  0
 12 36  1  0  0  0  0
 13 14  1  0  0  0  0
 13 37  1  0  0  0  0
 14 15  1  0  0  0  0
 14 19  1  0  0  0  0
 14 38  1  6  0  0  0
 15 16  1  0  0  0  0
 15 20  1  0  0  0  0
 15 39  1  6  0  0  0
 16 17  1  0  0  0  0
 16 40  1  0  0  0  0
 16 41  1  0  0  0  0
 17 18  1  0  0  0  0
 17 42  1  0  0  0  0
 17 43  1  0  0  0  0
 18 19  1  0  0  0  0
 18 44  1  0  0  0  0
 18 45  1  0  0  0  0
 19 46  1  0  0  0  0
 19 47  1  0  0  0  0
 20 21  1  0  0  0  0
 21 22  1  0  0  0  0
 21 48  1  0  0  0  0
 21 49  1  0  0  0  0
 22 23  1  0  0  0  0
 22 29  1  0  0  0  0
 22 50  1  0  0  0  0
 23 24  1  0  0  0  0
 23 51  1  0  0  0  0
 23 52  1  0  0  0  0
 24 25  1  0  0  0  0
 24 53  1  0  0  0  0
 24 54  1  0  0  0  0
 25 26  2  0  0  0  0
 25 27  2  0  0  0  0
 25 28  1  0  0  0  0
 28 29  1  0  0  0  0
 28 55  1  0  0  0  0
 28 56  1  0  0  0  0
 29 57  1  0  0  0  0
 29 58  1  0  0  0  0
M  CHG  1  17   1
M  END
