5a83_ligand
 OpenBabel08222323353D

 71 75  0  0  1  0  0  0  0  0999 V2000
  -24.4860   42.8230   12.0140 O   0  0  0  0  0  0  0  0  0  0  0  0
  -25.2760   43.6940   11.6550 C   0  0  0  0  0  0  0  0  0  0  0  0
  -26.5140   43.7500   12.2000 N   0  0  0  0  0  0  0  0  0  0  0  0
  -24.9790   44.7190   10.6780 C   0  0  0  0  0  0  0  0  0  0  0  0
  -23.6600   44.6730    9.9500 C   0  0  0  0  0  0  0  0  0  0  0  0
  -25.9080   45.6850   10.3930 C   0  0  0  0  0  0  0  0  0  0  0  0
  -27.2100   45.7330   11.0200 C   0  0  0  0  0  0  0  0  0  0  0  0
  -28.1660   46.7220   10.7590 C   0  0  0  0  0  0  0  0  0  0  0  0
  -27.8790   47.9210    9.9210 C   0  0  0  0  0  0  0  0  0  0  0  0
  -26.7880   48.7490   10.1700 C   0  0  0  0  0  0  0  0  0  0  0  0
  -26.4960   49.8380    9.4480 N   0  0  0  0  0  0  0  0  0  0  0  0
  -27.3080   50.1390    8.4270 C   0  0  0  0  0  0  0  0  0  0  0  0
  -28.6990   48.2770    8.8540 C   0  0  0  0  0  0  0  0  0  0  0  0
  -28.4270   49.3970    8.0840 C   0  0  0  0  0  0  0  0  0  0  0  0
  -29.3130   49.7950    6.9280 C   0  0  0  0  0  0  0  0  0  0  0  0
  -27.4930   44.6990   11.9340 C   0  0  0  0  0  0  0  0  0  0  0  0
  -28.7470   44.6190   12.5630 C   0  0  0  0  0  0  0  0  0  0  0  0
  -29.6910   45.6010   12.2510 C   0  0  0  0  0  0  0  0  0  0  0  0
  -29.4110   46.6310   11.3730 C   0  0  0  0  0  0  0  0  0  0  0  0
  -29.0120   43.5820   13.4550 N   0  0  0  0  0  0  0  0  0  0  0  0
  -30.3010   43.2530   14.0490 C   0  0  1  0  0  0  0  0  0  0  0  0
  -31.0080   42.1750   13.2370 C   0  0  1  0  0  0  0  0  0  0  0  0
  -32.3510   41.8050   13.8690 C   0  0  0  0  0  0  0  0  0  0  0  0
  -32.1720   41.4120   15.2640 N   0  3  0  0  0  0  0  0  0  0  0  0
  -31.4480   42.3730   16.1040 C   0  0  0  0  0  0  0  0  0  0  0  0
  -30.1250   42.7800   15.4910 C   0  0  0  0  0  0  0  0  0  0  0  0
  -31.2460   42.7290   11.9360 O   0  0  0  0  0  0  0  0  0  0  0  0
  -31.4490   41.7650   10.8980 C   0  0  0  0  0  0  0  0  0  0  0  0
  -31.3450   42.5060    9.5880 C   0  0  0  0  0  0  0  0  0  0  0  0
  -31.7130   41.5810    8.4310 C   0  0  0  0  0  0  0  0  0  0  0  0
  -31.6970   42.2960    7.0770 C   0  0  0  0  0  0  0  0  0  0  0  0
  -30.0690   42.8660    6.7000 S   0  0  0  0  0  0  0  0  0  0  0  0
  -30.1180   43.7020    5.5330 O   0  0  0  0  0  0  0  0  0  0  0  0
  -29.1700   41.7430    6.6940 O   0  0  0  0  0  0  0  0  0  0  0  0
  -29.7350   43.8670    8.1140 C   0  0  0  0  0  0  0  0  0  0  0  0
  -29.9340   43.0400    9.3720 C   0  0  0  0  0  0  0  0  0  0  0  0
  -26.7472   43.0364   12.8606 H   0  0  0  0  0  0  0  0  0  0  0  0
  -23.5980   45.5190    9.2497 H   0  0  0  0  0  0  0  0  0  0  0  0
  -23.5821   43.7285    9.3917 H   0  0  0  0  0  0  0  0  0  0  0  0
  -22.8373   44.7380   10.6773 H   0  0  0  0  0  0  0  0  0  0  0  0
  -25.6544   46.4509    9.6615 H   0  0  0  0  0  0  0  0  0  0  0  0
  -26.1357   48.4969   10.9982 H   0  0  0  0  0  0  0  0  0  0  0  0
  -27.0763   51.0157    7.8330 H   0  0  0  0  0  0  0  0  0  0  0  0
  -29.5650   47.6680    8.6213 H   0  0  0  0  0  0  0  0  0  0  0  0
  -28.9158   50.7071    6.4587 H   0  0  0  0  0  0  0  0  0  0  0  0
  -30.3320   49.9858    7.2957 H   0  0  0  0  0  0  0  0  0  0  0  0
  -29.3367   48.9821    6.1873 H   0  0  0  0  0  0  0  0  0  0  0  0
  -30.6714   45.5535   12.7110 H   0  0  0  0  0  0  0  0  0  0  0  0
  -30.1695   47.3758   11.1606 H   0  0  0  0  0  0  0  0  0  0  0  0
  -28.2148   42.9869   13.7219 H   0  0  0  0  0  0  0  0  0  0  0  0
  -30.9253   44.1587   14.0498 H   0  0  0  0  0  0  0  0  0  0  0  0
  -30.3736   41.2793   13.1647 H   0  0  0  0  0  0  0  0  0  0  0  0
  -32.7942   40.9668   13.3114 H   0  0  0  0  0  0  0  0  0  0  0  0
  -33.0243   42.6736   13.8218 H   0  0  0  0  0  0  0  0  0  0  0  0
  -31.6631   40.5420   15.2786 H   0  0  0  0  0  0  0  0  0  0  0  0
  -33.0854   41.2738   15.6672 H   0  0  0  0  0  0  0  0  0  0  0  0
  -31.2581   41.9140   17.0854 H   0  0  0  0  0  0  0  0  0  0  0  0
  -32.0703   43.2708   16.2333 H   0  0  0  0  0  0  0  0  0  0  0  0
  -29.6916   43.5977   16.0856 H   0  0  0  0  0  0  0  0  0  0  0  0
  -29.4439   41.9164   15.5038 H   0  0  0  0  0  0  0  0  0  0  0  0
  -32.4443   41.3071   10.9959 H   0  0  0  0  0  0  0  0  0  0  0  0
  -30.6782   40.9821   10.9523 H   0  0  0  0  0  0  0  0  0  0  0  0
  -32.0463   43.3532    9.6066 H   0  0  0  0  0  0  0  0  0  0  0  0
  -32.7229   41.1819    8.6066 H   0  0  0  0  0  0  0  0  0  0  0  0
  -30.9912   40.7516    8.3998 H   0  0  0  0  0  0  0  0  0  0  0  0
  -32.3825   43.1556    7.1131 H   0  0  0  0  0  0  0  0  0  0  0  0
  -32.0264   41.5969    6.2942 H   0  0  0  0  0  0  0  0  0  0  0  0
  -30.4217   44.7262    8.1266 H   0  0  0  0  0  0  0  0  0  0  0  0
  -28.6968   44.2279    8.0719 H   0  0  0  0  0  0  0  0  0  0  0  0
  -29.2495   42.1802    9.3244 H   0  0  0  0  0  0  0  0  0  0  0  0
  -29.6734   43.6689   10.2360 H   0  0  0  0  0  0  0  0  0  0  0  0
  1  2  2  0  0  0  0
  2  3  1  0  0  0  0
  2  4  1  0  0  0  0
  3 16  1  0  0  0  0
  3 37  1  0  0  0  0
  4  5  1  0  0  0  0
  4  6  2  0  0  0  0
  5 38  1  0  0  0  0
  5 39  1  0  0  0  0
  5 40  1  0  0  0  0
  6  7  1  0  0  0  0
  6 41  1  0  0  0  0
  7  8  2  0  0  0  0
  7 16  1  0  0  0  0
  8  9  1  0  0  0  0
  8 19  1  0  0  0  0
  9 10  2  0  0  0  0
  9 13  1  0  0  0  0
 10 11  1  0  0  0  0
 10 42  1  0  0  0  0
 11 12  2  0  0  0  0
 12 14  1  0  0  0  0
 12 43  1  0  0  0  0
 13 14  2  0  0  0  0
 13 44  1  0  0  0  0
 14 15  1  0  0  0  0
 15 45  1  0  0  0  0
 15 46  1  0  0  0  0
 15 47  1  0  0  0  0
 16 17  2  0  0  0  0
 17 18  1  0  0  0  0
 17 20  1  0  0  0  0
 18 19  2  0  0  0  0
 18 48  1  0  0  0  0
 19 49  1  0  0  0  0
 20 21  1  0  0  0  0
 20 50  1  0  0  0  0
 21 22  1  0  0  0  0
 21 26  1  0  0  0  0
 21 51  1  1  0  0  0
 22 23  1  0  0  0  0
 22 27  1  0  0  0  0
 22 52  1  6  0  0  0
 23 24  1  0  0  0  0
 23 53  1  0  0  0  0
 23 54  1  0  0  0  0
 24 25  1  0  0  0  0
 24 55  1  0  0  0  0
 24 56  1  0  0  0  0
 25 26  1  0  0  0  0
 25 57  1  0  0  0  0
 25 58  1  0  0  0  0
 26 59  1  0  0  0  0
 26 60  1  0  0  0  0
 27 28  1  0  0  0  0
 28 29  1  0  0  0  0
 28 61  1  0  0  0  0
 28 62  1  0  0  0  0
 29 30  1  0  0  0  0
 29 36  1  0  0  0  0
 29 63  1  0  0  0  0
 30 31  1  0  0  0  0
 30 64  1  0  0  0  0
 30 65  1  0  0  0  0
 31 32  1  0  0  0  0
 31 66  1  0  0  0  0
 31 67  1  0  0  0  0
 32 33  2  0  0  0  0
 32 34  2  0  0  0  0
 32 35  1  0  0  0  0
 35 36  1  0  0  0  0
 35 68  1  0  0  0  0
 35 69  1  0  0  0  0
 36 70  1  0  0  0  0
 36 71  1  0  0  0  0
M  CHG  1  24   1
M  END
