5aad_ligand
 OpenBabel08222323353D

 47 51  0  0  0  0  0  0  0  0999 V2000
   -6.3730   28.7330   75.9670 Cl  0  0  0  0  0  0  0  0  0  0  0  0
   -5.4450   30.0080   76.5590 C   0  0  0  0  0  0  0  0  0  0  0  0
   -5.2520   30.1460   77.9160 C   0  0  0  0  0  0  0  0  0  0  0  0
   -5.9330   29.3290   79.0010 C   0  0  0  0  0  0  0  0  0  0  0  0
   -7.1450   28.6440   78.7600 C   0  0  0  0  0  0  0  0  0  0  0  0
   -7.5670   28.0750   79.9310 N   0  0  0  0  0  0  0  0  0  0  0  0
   -8.8100   27.2490   79.9690 C   0  0  0  0  0  0  0  0  0  0  0  0
   -8.5280   25.7920   80.3280 C   0  0  0  0  0  0  0  0  0  0  0  0
   -7.4220   25.5620   81.1770 C   0  0  0  0  0  0  0  0  0  0  0  0
   -7.1270   24.2680   81.5760 C   0  0  0  0  0  0  0  0  0  0  0  0
   -7.9330   23.1830   81.1310 C   0  0  0  0  0  0  0  0  0  0  0  0
   -9.0470   23.4310   80.2880 C   0  0  0  0  0  0  0  0  0  0  0  0
   -9.3470   24.7500   79.8800 C   0  0  0  0  0  0  0  0  0  0  0  0
   -6.6840   28.4460   80.9750 N   0  0  0  0  0  0  0  0  0  0  0  0
   -5.6690   29.2610   80.3850 C   0  0  0  0  0  0  0  0  0  0  0  0
   -4.4710   31.2700   78.3880 C   0  0  0  0  0  0  0  0  0  0  0  0
   -4.1170   31.6920   79.7280 N   0  0  0  0  0  0  0  0  0  0  0  0
   -3.3590   32.7710   79.5510 C   0  0  0  0  0  0  0  0  0  0  0  0
   -2.7330   33.5780   80.6250 C   0  0  0  0  0  0  0  0  0  0  0  0
   -1.8730   34.6510   80.2680 C   0  0  0  0  0  0  0  0  0  0  0  0
   -1.4780   35.1660   81.3870 N   0  0  0  0  0  0  0  0  0  0  0  0
   -0.5820   36.2850   81.4510 C   0  0  0  0  0  0  0  0  0  0  0  0
   -2.0590   34.4490   82.5280 N   0  0  0  0  0  0  0  0  0  0  0  0
   -2.8330   33.4740   82.0210 C   0  0  0  0  0  0  0  0  0  0  0  0
   -3.6290   32.5040   82.7800 C   0  0  0  0  0  0  0  0  0  0  0  0
   -3.1800   33.0800   78.1350 N   0  0  0  0  0  0  0  0  0  0  0  0
   -3.8760   32.1450   77.4090 C   0  0  0  0  0  0  0  0  0  0  0  0
   -4.0350   31.9750   76.0910 N   0  0  0  0  0  0  0  0  0  0  0  0
   -4.8160   30.9290   75.6110 C   0  0  0  0  0  0  0  0  0  0  0  0
   -7.6582   28.5795   77.8016 H   0  0  0  0  0  0  0  0  0  0  0  0
   -9.2875   27.2830   78.9787 H   0  0  0  0  0  0  0  0  0  0  0  0
   -9.4930   27.6723   80.7202 H   0  0  0  0  0  0  0  0  0  0  0  0
   -6.8095   26.3907   81.5133 H   0  0  0  0  0  0  0  0  0  0  0  0
   -6.2811   24.0821   82.2279 H   0  0  0  0  0  0  0  0  0  0  0  0
   -7.6966   22.1698   81.4352 H   0  0  0  0  0  0  0  0  0  0  0  0
   -9.6688   22.6073   79.9565 H   0  0  0  0  0  0  0  0  0  0  0  0
  -10.1938   24.9503   79.2336 H   0  0  0  0  0  0  0  0  0  0  0  0
   -4.8433   29.7414   80.9079 H   0  0  0  0  0  0  0  0  0  0  0  0
   -4.3911   31.2542   80.6191 H   0  0  0  0  0  0  0  0  0  0  0  0
   -1.6030   34.9725   79.2632 H   0  0  0  0  0  0  0  0  0  0  0  0
   -0.3921   36.5429   82.5033 H   0  0  0  0  0  0  0  0  0  0  0  0
   -1.0343   37.1467   80.9382 H   0  0  0  0  0  0  0  0  0  0  0  0
    0.3672   36.0233   80.9606 H   0  0  0  0  0  0  0  0  0  0  0  0
   -3.4956   32.6831   83.8571 H   0  0  0  0  0  0  0  0  0  0  0  0
   -3.2970   31.4846   82.5339 H   0  0  0  0  0  0  0  0  0  0  0  0
   -4.6915   32.6168   82.5184 H   0  0  0  0  0  0  0  0  0  0  0  0
   -4.9576   30.7970   74.5444 H   0  0  0  0  0  0  0  0  0  0  0  0
  1  2  1  0  0  0  0
  2  3  2  0  0  0  0
  2 29  1  0  0  0  0
  3  4  1  0  0  0  0
  3 16  1  0  0  0  0
  4  5  2  0  0  0  0
  4 15  1  0  0  0  0
  5  6  1  0  0  0  0
  5 30  1  0  0  0  0
  6  7  1  0  0  0  0
  6 14  1  0  0  0  0
  7  8  1  0  0  0  0
  7 31  1  0  0  0  0
  7 32  1  0  0  0  0
  8  9  2  0  0  0  0
  8 13  1  0  0  0  0
  9 10  1  0  0  0  0
  9 33  1  0  0  0  0
 10 11  2  0  0  0  0
 10 34  1  0  0  0  0
 11 12  1  0  0  0  0
 11 35  1  0  0  0  0
 12 13  2  0  0  0  0
 12 36  1  0  0  0  0
 13 37  1  0  0  0  0
 14 15  2  0  0  0  0
 15 38  1  0  0  0  0
 16 17  1  0  0  0  0
 16 27  2  0  0  0  0
 17 18  1  0  0  0  0
 17 39  1  0  0  0  0
 18 19  1  0  0  0  0
 18 26  2  0  0  0  0
 19 20  2  0  0  0  0
 19 24  1  0  0  0  0
 20 21  1  0  0  0  0
 20 40  1  0  0  0  0
 21 22  1  0  0  0  0
 21 23  1  0  0  0  0
 22 41  1  0  0  0  0
 22 42  1  0  0  0  0
 22 43  1  0  0  0  0
 23 24  2  0  0  0  0
 24 25  1  0  0  0  0
 25 44  1  0  0  0  0
 25 45  1  0  0  0  0
 25 46  1  0  0  0  0
 26 27  1  0  0  0  0
 27 28  1  0  0  0  0
 28 29  2  0  0  0  0
 29 47  1  0  0  0  0
M  END
