5aae_ligand
 OpenBabel08222323353D

 46 50  0  0  0  0  0  0  0  0999 V2000
    7.9840  -22.0850   -5.1100 C   0  0  0  0  0  0  0  0  0  0  0  0
    7.6280  -23.5220   -4.7400 C   0  0  0  0  0  0  0  0  0  0  0  0
    8.4210  -24.6520   -4.9400 C   0  0  0  0  0  0  0  0  0  0  0  0
    7.7090  -25.7510   -4.4560 C   0  0  0  0  0  0  0  0  0  0  0  0
    8.1830  -27.2050   -4.4670 C   0  0  0  0  0  0  0  0  0  0  0  0
    7.0920  -28.0570   -4.8800 N   0  0  0  0  0  0  0  0  0  0  0  0
    6.9650  -28.6420   -6.0940 C   0  0  0  0  0  0  0  0  0  0  0  0
    5.7720  -29.3820   -6.1130 C   0  0  0  0  0  0  0  0  0  0  0  0
    5.2190  -30.1600   -7.1720 C   0  0  0  0  0  0  0  0  0  0  0  0
    5.4620  -29.8900   -8.5380 C   0  0  0  0  0  0  0  0  0  0  0  0
    6.4900  -28.5720   -9.0730 Cl  0  0  0  0  0  0  0  0  0  0  0  0
    4.8680  -30.7040   -9.5290 C   0  0  0  0  0  0  0  0  0  0  0  0
    4.0600  -31.7440   -9.1960 N   0  0  0  0  0  0  0  0  0  0  0  0
    3.7960  -32.0320   -7.8600 C   0  0  0  0  0  0  0  0  0  0  0  0
    3.0190  -33.0190   -7.2480 N   0  0  0  0  0  0  0  0  0  0  0  0
    3.0940  -32.8650   -5.9070 C   0  0  0  0  0  0  0  0  0  0  0  0
    2.4310  -33.6900   -4.9730 C   0  0  0  0  0  0  0  0  0  0  0  0
    1.6360  -34.7930   -5.3120 C   0  0  0  0  0  0  0  0  0  0  0  0
    1.1700  -35.3360   -4.1670 N   0  0  0  0  0  0  0  0  0  0  0  0
    0.3110  -36.4930   -4.0920 C   0  0  0  0  0  0  0  0  0  0  0  0
    1.6340  -34.6220   -3.1150 N   0  0  0  0  0  0  0  0  0  0  0  0
    2.4110  -33.6060   -3.5750 C   0  0  0  0  0  0  0  0  0  0  0  0
    3.1140  -32.5840   -2.6990 C   0  0  0  0  0  0  0  0  0  0  0  0
    3.8990  -31.8060   -5.6400 N   0  0  0  0  0  0  0  0  0  0  0  0
    4.3450  -31.2760   -6.8530 C   0  0  0  0  0  0  0  0  0  0  0  0
    5.2140  -29.2090   -4.8480 C   0  0  0  0  0  0  0  0  0  0  0  0
    6.0280  -28.4010   -4.1210 N   0  0  0  0  0  0  0  0  0  0  0  0
    6.5330  -25.3060   -3.9790 N   0  0  0  0  0  0  0  0  0  0  0  0
    6.4750  -23.9310   -4.1500 O   0  0  0  0  0  0  0  0  0  0  0  0
    8.9815  -22.0620   -5.5730 H   0  0  0  0  0  0  0  0  0  0  0  0
    7.9864  -21.4627   -4.2030 H   0  0  0  0  0  0  0  0  0  0  0  0
    7.2408  -21.6945   -5.8207 H   0  0  0  0  0  0  0  0  0  0  0  0
    9.4123  -24.6730   -5.3904 H   0  0  0  0  0  0  0  0  0  0  0  0
    8.5123  -27.4923   -3.4576 H   0  0  0  0  0  0  0  0  0  0  0  0
    9.0213  -27.3134   -5.1709 H   0  0  0  0  0  0  0  0  0  0  0  0
    7.6707  -28.5534   -6.9187 H   0  0  0  0  0  0  0  0  0  0  0  0
    5.0609  -30.4944  -10.5749 H   0  0  0  0  0  0  0  0  0  0  0  0
    1.4304  -35.1492   -6.3204 H   0  0  0  0  0  0  0  0  0  0  0  0
    0.0869  -36.7156   -3.0383 H   0  0  0  0  0  0  0  0  0  0  0  0
    0.8173  -37.3559   -4.5493 H   0  0  0  0  0  0  0  0  0  0  0  0
   -0.6260  -36.2896   -4.6311 H   0  0  0  0  0  0  0  0  0  0  0  0
    2.8959  -32.7954   -1.6418 H   0  0  0  0  0  0  0  0  0  0  0  0
    2.7558  -31.5754   -2.9526 H   0  0  0  0  0  0  0  0  0  0  0  0
    4.1994  -32.6410   -2.8680 H   0  0  0  0  0  0  0  0  0  0  0  0
    4.1401  -31.4531   -4.7029 H   0  0  0  0  0  0  0  0  0  0  0  0
    4.2804  -29.6487   -4.5002 H   0  0  0  0  0  0  0  0  0  0  0  0
  1  2  1  0  0  0  0
  1 30  1  0  0  0  0
  1 31  1  0  0  0  0
  1 32  1  0  0  0  0
  2  3  2  0  0  0  0
  2 29  1  0  0  0  0
  3  4  1  0  0  0  0
  3 33  1  0  0  0  0
  4  5  1  0  0  0  0
  4 28  2  0  0  0  0
  5  6  1  0  0  0  0
  5 34  1  0  0  0  0
  5 35  1  0  0  0  0
  6  7  1  0  0  0  0
  6 27  1  0  0  0  0
  7  8  2  0  0  0  0
  7 36  1  0  0  0  0
  8  9  1  0  0  0  0
  8 26  1  0  0  0  0
  9 10  2  0  0  0  0
  9 25  1  0  0  0  0
 10 11  1  0  0  0  0
 10 12  1  0  0  0  0
 12 13  2  0  0  0  0
 12 37  1  0  0  0  0
 13 14  1  0  0  0  0
 14 15  1  0  0  0  0
 14 25  2  0  0  0  0
 15 16  2  0  0  0  0
 16 17  1  0  0  0  0
 16 24  1  0  0  0  0
 17 18  2  0  0  0  0
 17 22  1  0  0  0  0
 18 19  1  0  0  0  0
 18 38  1  0  0  0  0
 19 20  1  0  0  0  0
 19 21  1  0  0  0  0
 20 39  1  0  0  0  0
 20 40  1  0  0  0  0
 20 41  1  0  0  0  0
 21 22  2  0  0  0  0
 22 23  1  0  0  0  0
 23 42  1  0  0  0  0
 23 43  1  0  0  0  0
 23 44  1  0  0  0  0
 24 25  1  0  0  0  0
 24 45  1  0  0  0  0
 26 27  2  0  0  0  0
 26 46  1  0  0  0  0
 28 29  1  0  0  0  0
M  END
