5ab0_ligand
 OpenBabel08222323353D

188192  0  0  1  0  0  0  0  0999 V2000
   16.6320    3.5890    3.1400 C   0  0  0  0  0  0  0  0  0  0  0  0
   15.7400    2.3460    3.2100 C   0  0  0  0  0  0  0  0  0  0  0  0
   18.3310    4.6300    1.8660 C   0  0  1  0  0  0  0  0  0  0  0  0
   20.8040    5.6740    1.8120 O   0  0  0  0  0  1  0  0  0  0  0  0
   20.1000    4.4110    1.8860 P   0  0  2  0  0  0  0  0  0  0  0  0
   20.5420    3.5090    0.8470 O   0  0  0  0  0  0  0  0  0  0  0  0
   17.8800    5.2650    0.8450 N   0  3  0  0  0  0  0  0  0  0  0  0
   17.7100    3.4220    2.0630 C   0  0  0  0  0  0  0  0  0  0  0  0
   16.0190    1.1890    3.9300 C   0  0  0  0  0  0  0  0  0  0  0  0
   15.1120    0.1070    3.9300 C   0  0  0  0  0  0  0  0  0  0  0  0
   13.9360    0.1300    3.2630 C   0  0  0  0  0  0  0  0  0  0  0  0
   13.6390    1.2960    2.5410 C   0  0  0  0  0  0  0  0  0  0  0  0
   14.5380    2.3840    2.5280 C   0  0  0  0  0  0  0  0  0  0  0  0
   21.5380    2.6670    3.1580 C   0  0  2  0  0  0  0  0  0  0  0  0
   21.2850    1.7090    4.3150 C   0  0  0  0  0  0  0  0  0  0  0  0
   22.0910    1.6090    5.2070 O   0  0  0  0  0  0  0  0  0  0  0  0
   22.8890    3.4270    3.4380 C   0  0  0  0  0  0  0  0  0  0  0  0
   24.1880    2.6410    3.2460 C   0  0  0  0  0  0  0  0  0  0  0  0
   25.3910    3.5600    3.1520 C   0  0  0  0  0  0  0  0  0  0  0  0
   24.0250    1.8810    1.9200 C   0  0  0  0  0  0  0  0  0  0  0  0
   20.4250    3.7410    3.2870 C   0  0  0  0  0  0  0  0  0  0  0  0
   20.0570    0.9640    4.3340 N   0  0  0  0  0  0  0  0  0  0  0  0
   19.7840   -0.0250    5.4040 C   0  0  2  0  0  0  0  0  0  0  0  0
   20.8850   -1.0730    5.4320 C   0  0  0  0  0  0  0  0  0  0  0  0
   21.0960   -1.7230    6.4530 O   0  0  0  0  0  0  0  0  0  0  0  0
   18.4160   -0.7160    5.2500 C   0  0  0  0  0  0  0  0  0  0  0  0
   18.0930   -1.2120    3.8450 C   0  0  0  0  0  0  0  0  0  0  0  0
   18.7050   -2.5280    3.5390 C   0  0  0  0  0  0  0  0  0  0  0  0
   18.5170   -2.8510    2.0850 C   0  0  0  0  0  0  0  0  0  0  0  0
   18.8020   -1.6230    1.2890 N   0  3  0  0  0  0  0  0  0  0  0  0
   21.5980   -1.2080    4.3140 N   0  0  0  0  0  0  0  0  0  0  0  0
   22.8930   -1.8610    4.2700 C   0  0  2  0  0  0  0  0  0  0  0  0
   23.8160   -1.3080    5.3600 C   0  0  0  0  0  0  0  0  0  0  0  0
   25.0030   -1.1180    5.1260 O   0  0  0  0  0  0  0  0  0  0  0  0
   23.5530   -1.6800    2.8840 C   0  0  0  0  0  0  0  0  0  0  0  0
   22.8730   -2.4310    1.7730 C   0  0  0  0  0  0  0  0  0  0  0  0
   21.6710   -2.0320    1.2270 N   0  0  0  0  0  0  0  0  0  0  0  0
   23.2330   -3.5560    1.1020 C   0  0  0  0  0  0  0  0  0  0  0  0
   21.3130   -2.8860    0.2790 C   0  0  0  0  0  0  0  0  0  0  0  0
   22.2450   -3.8180    0.1800 N   0  0  0  0  0  0  0  0  0  0  0  0
   23.2630   -1.0640    6.5490 N   0  0  0  0  0  0  0  0  0  0  0  0
   24.0180   -0.9060    7.7820 C   0  0  2  0  0  0  0  0  0  0  0  0
   24.9860   -2.0660    7.9420 C   0  0  0  0  0  0  0  0  0  0  0  0
   25.9290   -1.9650    8.7090 O   0  0  0  0  0  0  0  0  0  0  0  0
   23.0910   -0.8390    9.0070 C   0  0  0  0  0  0  0  0  0  0  0  0
   23.7740   -1.1840   10.2960 C   0  0  0  0  0  0  0  0  0  0  0  0
   24.9010   -0.5170   10.7410 N   0  0  0  0  0  0  0  0  0  0  0  0
   23.5170   -2.1470   11.2180 C   0  0  0  0  0  0  0  0  0  0  0  0
   25.2940   -1.0410   11.8910 C   0  0  0  0  0  0  0  0  0  0  0  0
   24.4700   -2.0300   12.2030 N   0  0  0  0  0  0  0  0  0  0  0  0
   24.7420   -3.1610    7.2230 N   0  0  0  0  0  0  0  0  0  0  0  0
   25.6070   -4.3360    7.2610 C   0  0  2  0  0  0  0  0  0  0  0  0
   26.8610   -4.2570    6.3540 C   0  0  0  0  0  0  0  0  0  0  0  0
   26.7030   -4.2720    5.1210 O   0  0  0  0  0  0  0  0  0  0  0  0
   24.7870   -5.6060    6.9100 C   0  0  0  0  0  0  0  0  0  0  0  0
   28.0970   -4.1600    6.8900 N   0  0  0  0  0  0  0  0  0  0  0  0
   28.5390   -3.7710    8.2640 C   0  0  2  0  0  0  0  0  0  0  0  0
   27.6680   -4.1400    9.5060 C   0  0  0  0  0  0  0  0  0  0  0  0
   27.5210   -3.3420   10.4330 O   0  0  0  0  0  0  0  0  0  0  0  0
   28.7870   -2.2450    8.2290 C   0  0  0  0  0  0  0  0  0  0  0  0
   29.6380   -1.6890    9.3690 C   0  0  0  0  0  0  0  0  0  0  0  0
   31.0220   -1.8850    9.3920 C   0  0  0  0  0  0  0  0  0  0  0  0
   29.0530   -0.8900   10.3690 C   0  0  0  0  0  0  0  0  0  0  0  0
   31.8090   -1.3330   10.4190 C   0  0  0  0  0  0  0  0  0  0  0  0
   29.8180   -0.3350   11.4100 C   0  0  0  0  0  0  0  0  0  0  0  0
   31.2010   -0.5520   11.4360 C   0  0  0  0  0  0  0  0  0  0  0  0
   27.0970   -5.3440    9.5320 N   0  0  0  0  0  0  0  0  0  0  0  0
   26.2050   -5.7140   10.6270 C   0  0  2  0  0  0  0  0  0  0  0  0
   27.1000   -5.8630   11.8480 C   0  0  0  0  0  0  0  0  0  0  0  0
   26.9480   -5.1400   12.8440 O   0  0  0  0  0  0  0  0  0  0  0  0
   25.4230   -7.0000   10.3140 C   0  0  0  0  0  0  0  0  0  0  0  0
   25.9750   -7.7030    9.2060 O   0  0  0  0  0  0  0  0  0  0  0  0
   28.0500   -6.7890   11.7330 N   0  0  0  0  0  0  0  0  0  0  0  0
   29.2270   -6.8420   12.5930 C   0  0  2  0  0  0  0  0  0  0  0  0
   30.4280   -7.2310   11.7410 C   0  0  0  0  0  0  0  0  0  0  0  0
   30.6710   -6.6020   10.7030 O   0  0  0  0  0  0  0  0  0  0  0  0
   29.0300   -7.8190   13.7510 C   0  0  0  0  0  0  0  0  0  0  0  0
   28.3030   -7.2190   14.9090 C   0  0  0  0  0  0  0  0  0  0  0  0
   28.5050   -5.9000   15.2460 C   0  0  0  0  0  0  0  0  0  0  0  0
   27.4090   -7.9610   15.6490 C   0  0  0  0  0  0  0  0  0  0  0  0
   27.8280   -5.3350   16.2930 C   0  0  0  0  0  0  0  0  0  0  0  0
   26.7380   -7.4020   16.7020 C   0  0  0  0  0  0  0  0  0  0  0  0
   26.9400   -6.0920   17.0220 C   0  0  0  0  0  0  0  0  0  0  0  0
   31.1670   -8.2590   12.1690 N   0  0  0  0  0  0  0  0  0  0  0  0
   32.3460   -8.7650   11.3880 C   0  0  1  0  0  0  0  0  0  0  0  0
   33.4880   -9.2270   12.3090 C   0  0  0  0  0  0  0  0  0  0  0  0
   34.8790   -9.2010   11.6470 C   0  0  0  0  0  0  0  0  0  0  0  0
   35.0430   -8.1120   10.5730 C   0  0  0  0  0  0  0  0  0  0  0  0
   35.2340   -8.7100    9.1700 C   0  0  0  0  0  0  0  0  0  0  0  0
   36.6720   -9.0260    8.9220 N   0  3  0  0  0  0  0  0  0  0  0  0
   31.9440   -9.8400   10.4020 C   0  0  0  0  0  0  0  0  0  0  0  0
   30.9920   -9.6430    9.6490 O   0  0  0  0  0  0  0  0  0  0  0  0
   32.6680  -11.0680   10.3450 N   0  0  0  0  0  0  0  0  0  0  0  0
   17.1168    3.7411    4.1156 H   0  0  0  0  0  0  0  0  0  0  0  0
   16.0124    4.4650    2.8979 H   0  0  0  0  0  0  0  0  0  0  0  0
   18.0872    5.2556    2.7373 H   0  0  0  0  0  0  0  0  0  0  0  0
   16.8774    5.3433    0.9140 H   0  0  0  0  0  0  0  0  0  0  0  0
   18.1208    4.7638    0.0043 H   0  0  0  0  0  0  0  0  0  0  0  0
   18.2877    6.1864    0.8153 H   0  0  0  0  0  0  0  0  0  0  0  0
   17.2452    3.0881    1.1236 H   0  0  0  0  0  0  0  0  0  0  0  0
   18.4486    2.6762    2.3920 H   0  0  0  0  0  0  0  0  0  0  0  0
   16.9407    1.1175    4.4960 H   0  0  0  0  0  0  0  0  0  0  0  0
   15.3705   -0.7838    4.4909 H   0  0  0  0  0  0  0  0  0  0  0  0
   13.2546   -0.7128    3.2850 H   0  0  0  0  0  0  0  0  0  0  0  0
   12.7093    1.3618    1.9874 H   0  0  0  0  0  0  0  0  0  0  0  0
   14.2786    3.2747    1.9673 H   0  0  0  0  0  0  0  0  0  0  0  0
   21.5371    2.1595    2.1821 H   0  0  0  0  0  0  0  0  0  0  0  0
   22.8634    3.7734    4.4817 H   0  0  0  0  0  0  0  0  0  0  0  0
   22.9255    4.2957    2.7641 H   0  0  0  0  0  0  0  0  0  0  0  0
   24.3303    1.9375    4.0796 H   0  0  0  0  0  0  0  0  0  0  0  0
   26.3019    2.9587    3.0148 H   0  0  0  0  0  0  0  0  0  0  0  0
   25.4761    4.1485    4.0774 H   0  0  0  0  0  0  0  0  0  0  0  0
   25.2676    4.2392    2.2956 H   0  0  0  0  0  0  0  0  0  0  0  0
   23.1532    1.2134    1.9848 H   0  0  0  0  0  0  0  0  0  0  0  0
   24.9291    1.2855    1.7251 H   0  0  0  0  0  0  0  0  0  0  0  0
   23.8760    2.6001    1.1011 H   0  0  0  0  0  0  0  0  0  0  0  0
   19.5127    3.2656    3.6763 H   0  0  0  0  0  0  0  0  0  0  0  0
   20.7597    4.5205    3.9872 H   0  0  0  0  0  0  0  0  0  0  0  0
   19.3774    1.1145    3.6160 H   0  0  0  0  0  0  0  0  0  0  0  0
   19.7861    0.5095    6.3654 H   0  0  0  0  0  0  0  0  0  0  0  0
   17.6369    0.0025    5.5445 H   0  0  0  0  0  0  0  0  0  0  0  0
   18.3932   -1.5807    5.9295 H   0  0  0  0  0  0  0  0  0  0  0  0
   18.4661   -0.4748    3.1188 H   0  0  0  0  0  0  0  0  0  0  0  0
   17.0011   -1.3024    3.7477 H   0  0  0  0  0  0  0  0  0  0  0  0
   18.2241   -3.3054    4.1508 H   0  0  0  0  0  0  0  0  0  0  0  0
   19.7801   -2.4931    3.7691 H   0  0  0  0  0  0  0  0  0  0  0  0
   17.4813   -3.1764    1.9077 H   0  0  0  0  0  0  0  0  0  0  0  0
   19.2091   -3.6535    1.7903 H   0  0  0  0  0  0  0  0  0  0  0  0
   18.6803   -1.8225    0.3085 H   0  0  0  0  0  0  0  0  0  0  0  0
   19.7508   -1.3268    1.4563 H   0  0  0  0  0  0  0  0  0  0  0  0
   18.1675   -0.8896    1.5639 H   0  0  0  0  0  0  0  0  0  0  0  0
   21.2218   -0.8410    3.4633 H   0  0  0  0  0  0  0  0  0  0  0  0
   22.7450   -2.9362    4.4490 H   0  0  0  0  0  0  0  0  0  0  0  0
   24.5939   -2.0296    2.9496 H   0  0  0  0  0  0  0  0  0  0  0  0
   23.5410   -0.6089    2.6337 H   0  0  0  0  0  0  0  0  0  0  0  0
   24.1364   -4.1423    1.2637 H   0  0  0  0  0  0  0  0  0  0  0  0
   20.4040   -2.8294   -0.3180 H   0  0  0  0  0  0  0  0  0  0  0  0
   22.2338   -4.6099   -0.4786 H   0  0  0  0  0  0  0  0  0  0  0  0
   22.2672   -0.9848    6.5956 H   0  0  0  0  0  0  0  0  0  0  0  0
   24.5904    0.0315    7.7239 H   0  0  0  0  0  0  0  0  0  0  0  0
   22.2608   -1.5441    8.8538 H   0  0  0  0  0  0  0  0  0  0  0  0
   22.6936    0.1836    9.0869 H   0  0  0  0  0  0  0  0  0  0  0  0
   22.7081   -2.8754   11.1841 H   0  0  0  0  0  0  0  0  0  0  0  0
   26.1494   -0.7145   12.4806 H   0  0  0  0  0  0  0  0  0  0  0  0
   24.5327   -2.6169   13.0471 H   0  0  0  0  0  0  0  0  0  0  0  0
   23.9341   -3.1784    6.6339 H   0  0  0  0  0  0  0  0  0  0  0  0
   25.9650   -4.4375    8.2962 H   0  0  0  0  0  0  0  0  0  0  0  0
   25.4448   -6.4872    6.9405 H   0  0  0  0  0  0  0  0  0  0  0  0
   24.3618   -5.5007    5.9010 H   0  0  0  0  0  0  0  0  0  0  0  0
   23.9733   -5.7304    7.6397 H   0  0  0  0  0  0  0  0  0  0  0  0
   28.8416   -4.3865    6.2621 H   0  0  0  0  0  0  0  0  0  0  0  0
   29.5051   -4.2716    8.4256 H   0  0  0  0  0  0  0  0  0  0  0  0
   27.8091   -1.7423    8.2603 H   0  0  0  0  0  0  0  0  0  0  0  0
   29.2922   -2.0057    7.2816 H   0  0  0  0  0  0  0  0  0  0  0  0
   31.4938   -2.4687    8.6099 H   0  0  0  0  0  0  0  0  0  0  0  0
   27.9867   -0.6978   10.3359 H   0  0  0  0  0  0  0  0  0  0  0  0
   32.8793   -1.5041   10.4336 H   0  0  0  0  0  0  0  0  0  0  0  0
   29.3418    0.2550   12.1847 H   0  0  0  0  0  0  0  0  0  0  0  0
   31.8044   -0.1255   12.2291 H   0  0  0  0  0  0  0  0  0  0  0  0
   27.2805   -5.9974    8.7976 H   0  0  0  0  0  0  0  0  0  0  0  0
   25.4804   -4.9050   10.8011 H   0  0  0  0  0  0  0  0  0  0  0  0
   24.3808   -6.7347   10.0828 H   0  0  0  0  0  0  0  0  0  0  0  0
   25.4473   -7.6545   11.1977 H   0  0  0  0  0  0  0  0  0  0  0  0
   25.4655   -8.4886    9.0452 H   0  0  0  0  0  0  0  0  0  0  0  0
   27.9515   -7.4837   11.0205 H   0  0  0  0  0  0  0  0  0  0  0  0
   29.4015   -5.8412   13.0148 H   0  0  0  0  0  0  0  0  0  0  0  0
   30.0185   -8.1566   14.0957 H   0  0  0  0  0  0  0  0  0  0  0  0
   28.4543   -8.6823   13.3861 H   0  0  0  0  0  0  0  0  0  0  0  0
   29.2075   -5.3024   14.6764 H   0  0  0  0  0  0  0  0  0  0  0  0
   27.2351   -9.0001   15.3940 H   0  0  0  0  0  0  0  0  0  0  0  0
   27.9911   -4.2939   16.5471 H   0  0  0  0  0  0  0  0  0  0  0  0
   26.0454   -8.0008   17.2823 H   0  0  0  0  0  0  0  0  0  0  0  0
   26.4010   -5.6471   17.8506 H   0  0  0  0  0  0  0  0  0  0  0  0
   30.9286   -8.7033   13.0326 H   0  0  0  0  0  0  0  0  0  0  0  0
   32.7303   -7.9180   10.8008 H   0  0  0  0  0  0  0  0  0  0  0  0
   33.2774  -10.2578   12.6301 H   0  0  0  0  0  0  0  0  0  0  0  0
   33.5115   -8.5665   13.1883 H   0  0  0  0  0  0  0  0  0  0  0  0
   35.0561  -10.1795   11.1767 H   0  0  0  0  0  0  0  0  0  0  0  0
   35.6315   -9.0293   12.4308 H   0  0  0  0  0  0  0  0  0  0  0  0
   35.9223   -7.4991   10.8203 H   0  0  0  0  0  0  0  0  0  0  0  0
   34.1437   -7.4786   10.5694 H   0  0  0  0  0  0  0  0  0  0  0  0
   34.8889   -7.9848    8.4184 H   0  0  0  0  0  0  0  0  0  0  0  0
   34.6420   -9.6334    9.0875 H   0  0  0  0  0  0  0  0  0  0  0  0
   36.7758   -9.4164    7.9985 H   0  0  0  0  0  0  0  0  0  0  0  0
   36.9924   -9.6929    9.6066 H   0  0  0  0  0  0  0  0  0  0  0  0
   37.2187   -8.1821    8.9934 H   0  0  0  0  0  0  0  0  0  0  0  0
   32.4000  -11.7766    9.6923 H   0  0  0  0  0  0  0  0  0  0  0  0
   33.4435  -11.2201   10.9577 H   0  0  0  0  0  0  0  0  0  0  0  0
  1  2  1  0  0  0  0
  1 94  1  0  0  0  0
  1 95  1  0  0  0  0
  2  9  2  0  0  0  0
  2 13  1  0  0  0  0
  3  7  1  0  0  0  0
  3  8  1  0  0  0  0
  3 96  1  1  0  0  0
  5  3  1  0  0  0  0
  5  4  1  6  0  0  0
  5  6  2  0  0  0  0
  7 97  1  0  0  0  0
  7 98  1  0  0  0  0
  7 99  1  0  0  0  0
  8  1  1  0  0  0  0
  8100  1  0  0  0  0
  8101  1  0  0  0  0
  9 10  1  0  0  0  0
  9102  1  0  0  0  0
 10 11  2  0  0  0  0
 10103  1  0  0  0  0
 11104  1  0  0  0  0
 12 11  1  0  0  0  0
 12105  1  0  0  0  0
 13 12  2  0  0  0  0
 13106  1  0  0  0  0
 14 15  1  0  0  0  0
 14 17  1  0  0  0  0
 14 21  1  0  0  0  0
 14107  1  6  0  0  0
 15 16  2  0  0  0  0
 15 22  1  0  0  0  0
 17 18  1  0  0  0  0
 17108  1  0  0  0  0
 17109  1  0  0  0  0
 18 19  1  0  0  0  0
 18 20  1  0  0  0  0
 18110  1  0  0  0  0
 19111  1  0  0  0  0
 19112  1  0  0  0  0
 19113  1  0  0  0  0
 20114  1  0  0  0  0
 20115  1  0  0  0  0
 20116  1  0  0  0  0
 21  5  1  0  0  0  0
 21117  1  0  0  0  0
 21118  1  0  0  0  0
 22 23  1  0  0  0  0
 22119  1  0  0  0  0
 23 24  1  0  0  0  0
 23 26  1  0  0  0  0
 23120  1  1  0  0  0
 24 25  2  0  0  0  0
 24 31  1  0  0  0  0
 26 27  1  0  0  0  0
 26121  1  0  0  0  0
 26122  1  0  0  0  0
 27 28  1  0  0  0  0
 27123  1  0  0  0  0
 27124  1  0  0  0  0
 28 29  1  0  0  0  0
 28125  1  0  0  0  0
 28126  1  0  0  0  0
 29 30  1  0  0  0  0
 29127  1  0  0  0  0
 29128  1  0  0  0  0
 30129  1  0  0  0  0
 30130  1  0  0  0  0
 30131  1  0  0  0  0
 31 32  1  0  0  0  0
 31132  1  0  0  0  0
 32 33  1  0  0  0  0
 32 35  1  0  0  0  0
 32133  1  1  0  0  0
 33 34  2  0  0  0  0
 33 41  1  0  0  0  0
 35 36  1  0  0  0  0
 35134  1  0  0  0  0
 35135  1  0  0  0  0
 36 37  1  0  0  0  0
 36 38  2  0  0  0  0
 37 39  2  0  0  0  0
 38 40  1  0  0  0  0
 38136  1  0  0  0  0
 39 40  1  0  0  0  0
 39137  1  0  0  0  0
 40138  1  0  0  0  0
 41 42  1  0  0  0  0
 41139  1  0  0  0  0
 42 43  1  0  0  0  0
 42 45  1  0  0  0  0
 42140  1  6  0  0  0
 43 44  2  0  0  0  0
 43 51  1  0  0  0  0
 45 46  1  0  0  0  0
 45141  1  0  0  0  0
 45142  1  0  0  0  0
 46 47  1  0  0  0  0
 46 48  2  0  0  0  0
 47 49  2  0  0  0  0
 48 50  1  0  0  0  0
 48143  1  0  0  0  0
 49 50  1  0  0  0  0
 49144  1  0  0  0  0
 50145  1  0  0  0  0
 51 52  1  0  0  0  0
 51146  1  0  0  0  0
 52 53  1  0  0  0  0
 52 55  1  0  0  0  0
 52147  1  1  0  0  0
 53 54  2  0  0  0  0
 53 56  1  0  0  0  0
 55148  1  0  0  0  0
 55149  1  0  0  0  0
 55150  1  0  0  0  0
 56 57  1  0  0  0  0
 56151  1  0  0  0  0
 57 58  1  0  0  0  0
 57 60  1  0  0  0  0
 57152  1  1  0  0  0
 58 59  2  0  0  0  0
 58 67  1  0  0  0  0
 60 61  1  0  0  0  0
 60153  1  0  0  0  0
 60154  1  0  0  0  0
 61 62  2  0  0  0  0
 61 63  1  0  0  0  0
 62 64  1  0  0  0  0
 62155  1  0  0  0  0
 63 65  2  0  0  0  0
 63156  1  0  0  0  0
 64 66  2  0  0  0  0
 64157  1  0  0  0  0
 65 66  1  0  0  0  0
 65158  1  0  0  0  0
 66159  1  0  0  0  0
 67 68  1  0  0  0  0
 67160  1  0  0  0  0
 68 69  1  0  0  0  0
 68 71  1  0  0  0  0
 68161  1  1  0  0  0
 69 70  2  0  0  0  0
 69 73  1  0  0  0  0
 71 72  1  0  0  0  0
 71162  1  0  0  0  0
 71163  1  0  0  0  0
 72164  1  0  0  0  0
 73 74  1  0  0  0  0
 73165  1  0  0  0  0
 74 75  1  0  0  0  0
 74 77  1  0  0  0  0
 74166  1  1  0  0  0
 75 76  2  0  0  0  0
 75 84  1  0  0  0  0
 77 78  1  0  0  0  0
 77167  1  0  0  0  0
 77168  1  0  0  0  0
 78 79  2  0  0  0  0
 78 80  1  0  0  0  0
 79 81  1  0  0  0  0
 79169  1  0  0  0  0
 80 82  2  0  0  0  0
 80170  1  0  0  0  0
 81 83  2  0  0  0  0
 81171  1  0  0  0  0
 82 83  1  0  0  0  0
 82172  1  0  0  0  0
 83173  1  0  0  0  0
 84 85  1  0  0  0  0
 84174  1  0  0  0  0
 85 86  1  0  0  0  0
 85 91  1  0  0  0  0
 85175  1  6  0  0  0
 86 87  1  0  0  0  0
 86176  1  0  0  0  0
 86177  1  0  0  0  0
 87 88  1  0  0  0  0
 87178  1  0  0  0  0
 87179  1  0  0  0  0
 88 89  1  0  0  0  0
 88180  1  0  0  0  0
 88181  1  0  0  0  0
 89 90  1  0  0  0  0
 89182  1  0  0  0  0
 89183  1  0  0  0  0
 90184  1  0  0  0  0
 90185  1  0  0  0  0
 90186  1  0  0  0  0
 91 92  2  0  0  0  0
 91 93  1  0  0  0  0
 93187  1  0  0  0  0
 93188  1  0  0  0  0
M  CHG  3   7   1  30   1  90   1
M  END
