5ab9_ligand
 OpenBabel08222323353D

 38 40  0  0  0  0  0  0  0  0999 V2000
   93.7580   92.0400  -41.5680 C   0  0  0  0  0  0  0  0  0  0  0  0
   91.9890   95.1010  -40.9440 N   0  0  0  0  0  0  0  0  0  0  0  0
   92.2620   92.1210  -41.6260 C   0  0  0  0  0  0  0  0  0  0  0  0
   90.7080  100.2510  -44.6660 N   0  3  0  0  0  0  0  0  0  0  0  0
   91.8830   93.2420  -42.5880 C   0  0  0  0  0  0  0  0  0  0  0  0
   91.6320   93.0080  -43.9470 C   0  0  0  0  0  0  0  0  0  0  0  0
   91.2990   94.0570  -44.8110 C   0  0  0  0  0  0  0  0  0  0  0  0
   91.2160   95.3690  -44.3570 C   0  0  0  0  0  0  0  0  0  0  0  0
   91.4620   95.6580  -43.0130 C   0  0  0  0  0  0  0  0  0  0  0  0
   91.4670   96.8260  -42.2510 C   0  0  0  0  0  0  0  0  0  0  0  0
   91.8000   96.4440  -40.9680 C   0  0  0  0  0  0  0  0  0  0  0  0
   91.7930   94.5820  -42.1680 C   0  0  0  0  0  0  0  0  0  0  0  0
   91.1910   98.2520  -42.6920 C   0  0  0  0  0  0  0  0  0  0  0  0
   92.2520   98.7030  -43.6360 C   0  0  0  0  0  0  0  0  0  0  0  0
   92.0360  100.1240  -44.0780 C   0  0  0  0  0  0  0  0  0  0  0  0
   89.6340   99.8180  -43.7800 C   0  0  0  0  0  0  0  0  0  0  0  0
   89.8580   98.4040  -43.3350 C   0  0  0  0  0  0  0  0  0  0  0  0
   94.0552   91.2362  -40.8784 H   0  0  0  0  0  0  0  0  0  0  0  0
   94.1635   92.9981  -41.2108 H   0  0  0  0  0  0  0  0  0  0  0  0
   94.1529   91.8262  -42.5722 H   0  0  0  0  0  0  0  0  0  0  0  0
   92.2458   94.5572  -40.1078 H   0  0  0  0  0  0  0  0  0  0  0  0
   91.8616   92.3382  -40.6248 H   0  0  0  0  0  0  0  0  0  0  0  0
   91.8510   91.1664  -41.9861 H   0  0  0  0  0  0  0  0  0  0  0  0
   90.6754   99.6912  -45.5036 H   0  0  0  0  0  0  0  0  0  0  0  0
   90.5553  101.2189  -44.9025 H   0  0  0  0  0  0  0  0  0  0  0  0
   91.6969   91.9979  -44.3350 H   0  0  0  0  0  0  0  0  0  0  0  0
   91.1017   93.8428  -45.8552 H   0  0  0  0  0  0  0  0  0  0  0  0
   90.9607   96.1663  -45.0456 H   0  0  0  0  0  0  0  0  0  0  0  0
   91.8956   97.1121  -40.1133 H   0  0  0  0  0  0  0  0  0  0  0  0
   91.2160   98.8955  -41.8003 H   0  0  0  0  0  0  0  0  0  0  0  0
   92.2434   98.0494  -44.5207 H   0  0  0  0  0  0  0  0  0  0  0  0
   93.2289   98.6300  -43.1356 H   0  0  0  0  0  0  0  0  0  0  0  0
   92.1190  100.7950  -43.2103 H   0  0  0  0  0  0  0  0  0  0  0  0
   92.7960  100.3955  -44.8255 H   0  0  0  0  0  0  0  0  0  0  0  0
   88.6753   99.8813  -44.3156 H   0  0  0  0  0  0  0  0  0  0  0  0
   89.6054  100.4747  -42.8980 H   0  0  0  0  0  0  0  0  0  0  0  0
   89.0764   98.1262  -42.6126 H   0  0  0  0  0  0  0  0  0  0  0  0
   89.8024   97.7388  -44.2093 H   0  0  0  0  0  0  0  0  0  0  0  0
  1 18  1  0  0  0  0
  1 19  1  0  0  0  0
  1 20  1  0  0  0  0
  2 12  1  0  0  0  0
  2 21  1  0  0  0  0
  3  1  1  0  0  0  0
  3 22  1  0  0  0  0
  3 23  1  0  0  0  0
  4 16  1  0  0  0  0
  4 24  1  0  0  0  0
  4 25  1  0  0  0  0
  5  3  1  0  0  0  0
  5  6  2  0  0  0  0
  6 26  1  0  0  0  0
  7  6  1  0  0  0  0
  7 27  1  0  0  0  0
  8  7  2  0  0  0  0
  8 28  1  0  0  0  0
  9  8  1  0  0  0  0
  9 12  2  0  0  0  0
 10  9  1  0  0  0  0
 10 11  2  0  0  0  0
 11  2  1  0  0  0  0
 11 29  1  0  0  0  0
 12  5  1  0  0  0  0
 13 10  1  0  0  0  0
 13 17  1  0  0  0  0
 13 30  1  0  0  0  0
 14 13  1  0  0  0  0
 14 15  1  0  0  0  0
 14 31  1  0  0  0  0
 14 32  1  0  0  0  0
 15  4  1  0  0  0  0
 15 33  1  0  0  0  0
 15 34  1  0  0  0  0
 16 17  1  0  0  0  0
 16 35  1  0  0  0  0
 16 36  1  0  0  0  0
 17 37  1  0  0  0  0
 17 38  1  0  0  0  0
M  CHG  1   4   1
M  END
