5abf_ligand
 OpenBabel08222323353D

 46 46  0  0  1  0  0  0  0  0999 V2000
   27.6400   53.0050  246.0540 O   0  0  0  0  0  0  0  0  0  0  0  0
   28.7340   52.4720  245.9830 C   0  0  0  0  0  0  0  0  0  0  0  0
   29.3230   52.1630  244.8310 N   0  0  0  0  0  0  0  0  0  0  0  0
   28.6980   52.4570  243.5590 C   0  0  0  0  0  0  0  0  0  0  0  0
   29.4700   52.1270  247.2490 C   0  0  0  0  0  0  0  0  0  0  0  0
   28.5500   51.1630  247.9960 C   0  0  1  0  0  0  0  0  0  0  0  0
   29.2470   49.9360  248.5670 C   0  0  1  0  0  0  0  0  0  0  0  0
   30.6030   50.2120  248.9180 O   0  0  0  0  0  0  0  0  0  0  0  0
   28.4060   49.5770  249.7790 C   0  0  2  0  0  0  0  0  0  0  0  0
   28.0350   48.2030  249.7430 O   0  0  0  0  0  0  0  0  0  0  0  0
   27.1970   50.5070  249.6730 C   0  0  1  0  0  0  0  0  0  0  0  0
   26.3690   50.7290  250.9430 C   0  0  0  0  0  0  0  0  0  0  0  0
   26.9060   50.0150  252.0590 O   0  0  0  0  0  0  0  0  0  0  0  0
   27.7840   51.7390  249.1230 N   0  3  1  0  0  0  0  0  0  0  0  0
   28.6330   52.3850  250.1420 C   0  0  0  0  0  0  0  0  0  0  0  0
   28.1190   53.7730  250.4890 C   0  0  0  0  0  0  0  0  0  0  0  0
   28.5800   54.1320  251.8970 C   0  0  0  0  0  0  0  0  0  0  0  0
   28.9070   55.6100  252.0520 C   0  0  0  0  0  0  0  0  0  0  0  0
   27.6750   56.4090  252.4090 C   0  0  0  0  0  0  0  0  0  0  0  0
   30.2181   51.7174  244.8441 H   0  0  0  0  0  0  0  0  0  0  0  0
   29.3529   52.1197  242.7421 H   0  0  0  0  0  0  0  0  0  0  0  0
   28.5335   53.5412  243.4732 H   0  0  0  0  0  0  0  0  0  0  0  0
   27.7327   51.9334  243.4950 H   0  0  0  0  0  0  0  0  0  0  0  0
   29.6506   53.0311  247.8490 H   0  0  0  0  0  0  0  0  0  0  0  0
   30.4301   51.6427  247.0175 H   0  0  0  0  0  0  0  0  0  0  0  0
   27.8210   50.8139  247.2499 H   0  0  0  0  0  0  0  0  0  0  0  0
   29.2327   49.1139  247.8363 H   0  0  0  0  0  0  0  0  0  0  0  0
   31.0042   49.4259  249.2695 H   0  0  0  0  0  0  0  0  0  0  0  0
   28.9599   49.7744  250.7086 H   0  0  0  0  0  0  0  0  0  0  0  0
   27.5103   47.9977  250.5079 H   0  0  0  0  0  0  0  0  0  0  0  0
   26.5045   50.0829  248.9310 H   0  0  0  0  0  0  0  0  0  0  0  0
   25.3401   50.3847  250.7619 H   0  0  0  0  0  0  0  0  0  0  0  0
   26.3600   51.8034  251.1788 H   0  0  0  0  0  0  0  0  0  0  0  0
   26.9121   49.0850  251.8653 H   0  0  0  0  0  0  0  0  0  0  0  0
   27.0838   52.3896  248.8028 H   0  0  0  0  0  0  0  0  0  0  0  0
   29.6585   52.4694  249.7531 H   0  0  0  0  0  0  0  0  0  0  0  0
   28.6355   51.7660  251.0513 H   0  0  0  0  0  0  0  0  0  0  0  0
   27.0198   53.7810  250.4470 H   0  0  0  0  0  0  0  0  0  0  0  0
   28.5187   54.5049  249.7717 H   0  0  0  0  0  0  0  0  0  0  0  0
   29.4810   53.5463  252.1318 H   0  0  0  0  0  0  0  0  0  0  0  0
   27.7794   53.8731  252.6056 H   0  0  0  0  0  0  0  0  0  0  0  0
   29.3171   55.9879  251.1039 H   0  0  0  0  0  0  0  0  0  0  0  0
   29.6555   55.7300  252.8490 H   0  0  0  0  0  0  0  0  0  0  0  0
   27.9440   57.4704  252.5137 H   0  0  0  0  0  0  0  0  0  0  0  0
   27.2613   56.0402  253.3592 H   0  0  0  0  0  0  0  0  0  0  0  0
   26.9229   56.2981  251.6140 H   0  0  0  0  0  0  0  0  0  0  0  0
  1  2  2  0  0  0  0
  2  3  1  0  0  0  0
  2  5  1  0  0  0  0
  3  4  1  0  0  0  0
  3 20  1  0  0  0  0
  4 21  1  0  0  0  0
  4 22  1  0  0  0  0
  4 23  1  0  0  0  0
  5  6  1  0  0  0  0
  5 24  1  0  0  0  0
  5 25  1  0  0  0  0
  6  7  1  0  0  0  0
  6 14  1  0  0  0  0
  6 26  1  6  0  0  0
  7  8  1  0  0  0  0
  7  9  1  0  0  0  0
  7 27  1  6  0  0  0
  8 28  1  0  0  0  0
  9 10  1  0  0  0  0
  9 11  1  0  0  0  0
  9 29  1  1  0  0  0
 10 30  1  0  0  0  0
 11 12  1  0  0  0  0
 11 14  1  0  0  0  0
 11 31  1  6  0  0  0
 12 13  1  0  0  0  0
 12 32  1  0  0  0  0
 12 33  1  0  0  0  0
 13 34  1  0  0  0  0
 14 15  1  0  0  0  0
 14 35  1  6  0  0  0
 15 16  1  0  0  0  0
 15 36  1  0  0  0  0
 15 37  1  0  0  0  0
 16 17  1  0  0  0  0
 16 38  1  0  0  0  0
 16 39  1  0  0  0  0
 17 18  1  0  0  0  0
 17 40  1  0  0  0  0
 17 41  1  0  0  0  0
 18 19  1  0  0  0  0
 18 42  1  0  0  0  0
 18 43  1  0  0  0  0
 19 44  1  0  0  0  0
 19 45  1  0  0  0  0
 19 46  1  0  0  0  0
M  CHG  1  14   1
M  END
