5abh_ligand
 OpenBabel08222323353D

 46 46  0  0  1  0  0  0  0  0999 V2000
   27.5120   52.9680  249.3110 C   0  0  0  0  0  0  0  0  0  0  0  0
   27.8930   51.8380  248.4430 N   0  3  1  0  0  0  0  0  0  0  0  0
   29.3670   51.6630  248.2870 C   0  0  1  0  0  0  0  0  0  0  0  0
   29.5990   50.1810  248.2560 C   0  0  1  0  0  0  0  0  0  0  0  0
   28.4570   49.6780  249.1280 C   0  0  1  0  0  0  0  0  0  0  0  0
   27.2840   50.5140  248.6810 C   0  0  1  0  0  0  0  0  0  0  0  0
   28.5470   53.5820  250.2520 C   0  0  0  0  0  0  0  0  0  0  0  0
   27.8460   54.5770  251.1660 C   0  0  0  0  0  0  0  0  0  0  0  0
   28.3580   56.0010  251.0480 C   0  0  0  0  0  0  0  0  0  0  0  0
   28.0230   56.7940  252.3020 C   0  0  0  0  0  0  0  0  0  0  0  0
   29.9100   52.4040  247.0730 C   0  0  0  0  0  0  0  0  0  0  0  0
   28.9710   52.3830  245.8730 C   0  0  0  0  0  0  0  0  0  0  0  0
   27.7820   52.6620  246.0030 O   0  0  0  0  0  0  0  0  0  0  0  0
   29.5400   52.1700  244.6760 N   0  0  0  0  0  0  0  0  0  0  0  0
   28.8320   52.4730  243.4420 C   0  0  0  0  0  0  0  0  0  0  0  0
   26.0810   50.4140  249.6330 C   0  0  0  0  0  0  0  0  0  0  0  0
   26.4440   50.6880  250.9870 O   0  0  0  0  0  0  0  0  0  0  0  0
   28.1910   48.2960  248.9690 O   0  0  0  0  0  0  0  0  0  0  0  0
   29.5700   49.6230  246.9330 O   0  0  0  0  0  0  0  0  0  0  0  0
   26.6770   52.6215  249.9377 H   0  0  0  0  0  0  0  0  0  0  0  0
   27.1638   53.7750  248.6496 H   0  0  0  0  0  0  0  0  0  0  0  0
   27.5549   52.1132  247.5342 H   0  0  0  0  0  0  0  0  0  0  0  0
   29.8705   52.0766  249.1732 H   0  0  0  0  0  0  0  0  0  0  0  0
   30.5699   49.9358  248.7112 H   0  0  0  0  0  0  0  0  0  0  0  0
   28.6823   49.8685  250.1877 H   0  0  0  0  0  0  0  0  0  0  0  0
   26.9281   50.1341  247.7120 H   0  0  0  0  0  0  0  0  0  0  0  0
   29.3200   54.0996  249.6650 H   0  0  0  0  0  0  0  0  0  0  0  0
   29.0141   52.7901  250.8559 H   0  0  0  0  0  0  0  0  0  0  0  0
   27.9842   54.2463  252.2059 H   0  0  0  0  0  0  0  0  0  0  0  0
   26.7739   54.5749  250.9199 H   0  0  0  0  0  0  0  0  0  0  0  0
   27.8881   56.4836  250.1784 H   0  0  0  0  0  0  0  0  0  0  0  0
   29.4494   55.9830  250.9121 H   0  0  0  0  0  0  0  0  0  0  0  0
   28.4014   57.8216  252.1979 H   0  0  0  0  0  0  0  0  0  0  0  0
   28.4934   56.3167  253.1743 H   0  0  0  0  0  0  0  0  0  0  0  0
   26.9320   56.8173  252.4406 H   0  0  0  0  0  0  0  0  0  0  0  0
   30.8613   51.9372  246.7779 H   0  0  0  0  0  0  0  0  0  0  0  0
   30.0880   53.4518  247.3565 H   0  0  0  0  0  0  0  0  0  0  0  0
   30.4666   51.7966  244.6319 H   0  0  0  0  0  0  0  0  0  0  0  0
   29.4721   52.2266  242.5821 H   0  0  0  0  0  0  0  0  0  0  0  0
   28.5804   53.5435  243.4169 H   0  0  0  0  0  0  0  0  0  0  0  0
   27.9081   51.8780  243.3937 H   0  0  0  0  0  0  0  0  0  0  0  0
   25.6667   49.3966  249.5757 H   0  0  0  0  0  0  0  0  0  0  0  0
   25.3170   51.1394  249.3168 H   0  0  0  0  0  0  0  0  0  0  0  0
   27.0998   50.0619  251.2708 H   0  0  0  0  0  0  0  0  0  0  0  0
   27.4329   48.0586  249.4899 H   0  0  0  0  0  0  0  0  0  0  0  0
   29.6387   48.6770  246.9879 H   0  0  0  0  0  0  0  0  0  0  0  0
  1  2  1  0  0  0  0
  1  7  1  0  0  0  0
  1 20  1  0  0  0  0
  1 21  1  0  0  0  0
  2  3  1  0  0  0  0
  2  6  1  0  0  0  0
  2 22  1  6  0  0  0
  3  4  1  0  0  0  0
  3 11  1  0  0  0  0
  3 23  1  1  0  0  0
  4  5  1  0  0  0  0
  4 19  1  0  0  0  0
  4 24  1  1  0  0  0
  5  6  1  0  0  0  0
  5 18  1  0  0  0  0
  5 25  1  1  0  0  0
  6 16  1  0  0  0  0
  6 26  1  6  0  0  0
  7  8  1  0  0  0  0
  7 27  1  0  0  0  0
  7 28  1  0  0  0  0
  8  9  1  0  0  0  0
  8 29  1  0  0  0  0
  8 30  1  0  0  0  0
  9 10  1  0  0  0  0
  9 31  1  0  0  0  0
  9 32  1  0  0  0  0
 10 33  1  0  0  0  0
 10 34  1  0  0  0  0
 10 35  1  0  0  0  0
 11 12  1  0  0  0  0
 11 36  1  0  0  0  0
 11 37  1  0  0  0  0
 12 13  2  0  0  0  0
 12 14  1  0  0  0  0
 14 15  1  0  0  0  0
 14 38  1  0  0  0  0
 15 39  1  0  0  0  0
 15 40  1  0  0  0  0
 15 41  1  0  0  0  0
 16 17  1  0  0  0  0
 16 42  1  0  0  0  0
 16 43  1  0  0  0  0
 17 44  1  0  0  0  0
 18 45  1  0  0  0  0
 19 46  1  0  0  0  0
M  CHG  1   2   1
M  END
