5aer_ligand
 OpenBabel08222323353D

254256  0  0  1  0  0  0  0  0999 V2000
    0.2180   28.6160  -34.8450 N   0  3  0  0  0  0  0  0  0  0  0  0
   -0.1090   30.0670  -34.8230 C   0  0  2  0  0  0  0  0  0  0  0  0
   -0.6120   30.4760  -33.4400 C   0  0  0  0  0  0  0  0  0  0  0  0
   -1.5750   29.9090  -32.9300 O   0  0  0  0  0  0  0  0  0  0  0  0
   -1.1550   30.3830  -35.8980 C   0  0  0  0  0  0  0  0  0  0  0  0
   -1.6230   31.8210  -35.8460 C   0  0  0  0  0  0  0  0  0  0  0  0
   -2.2830   32.2280  -34.9010 O   0  0  0  0  0  0  0  0  0  0  0  0
   -1.2890   32.5960  -36.8690 N   0  0  0  0  0  0  0  0  0  0  0  0
    0.0380   31.4600  -32.8310 N   0  0  0  0  0  0  0  0  0  0  0  0
   -0.2800   31.8060  -31.4540 C   0  0  2  0  0  0  0  0  0  0  0  0
   -1.6860   32.4120  -31.3020 C   0  0  0  0  0  0  0  0  0  0  0  0
   -2.3220   32.2340  -30.2640 O   0  0  0  0  0  0  0  0  0  0  0  0
    0.7950   32.7260  -30.8170 C   0  0  2  0  0  0  0  0  0  0  0  0
    0.6770   32.6900  -29.2870 C   0  0  0  0  0  0  0  0  0  0  0  0
    0.6790   34.1520  -31.3310 C   0  0  0  0  0  0  0  0  0  0  0  0
    1.6970   33.5360  -28.5470 C   0  0  0  0  0  0  0  0  0  0  0  0
   -2.1800   33.1100  -32.3200 N   0  0  0  0  0  0  0  0  0  0  0  0
   -3.5210   33.7050  -32.2280 C   0  0  2  0  0  0  0  0  0  0  0  0
   -4.6150   32.6440  -32.3710 C   0  0  0  0  0  0  0  0  0  0  0  0
   -5.6620   32.7350  -31.7230 O   0  0  0  0  0  0  0  0  0  0  0  0
   -3.7140   34.8310  -33.2500 C   0  0  0  0  0  0  0  0  0  0  0  0
   -2.8870   36.0810  -32.9540 C   0  0  0  0  0  0  0  0  0  0  0  0
   -3.4770   36.9600  -31.8590 C   0  0  0  0  0  0  0  0  0  0  0  0
   -4.7150   37.0140  -31.7220 O   0  5  0  0  0  0  0  0  0  0  0  0
   -2.7020   37.6420  -31.1580 O   0  0  0  0  0  0  0  0  0  0  0  0
   -4.3730   31.6370  -33.2050 N   0  0  0  0  0  0  0  0  0  0  0  0
   -5.2680   30.4820  -33.2670 C   0  0  2  0  0  0  0  0  0  0  0  0
   -5.2680   29.7370  -31.9330 C   0  0  0  0  0  0  0  0  0  0  0  0
   -6.3220   29.4350  -31.3830 O   0  0  0  0  0  0  0  0  0  0  0  0
   -4.8600   29.5250  -34.3870 C   0  0  0  0  0  0  0  0  0  0  0  0
   -5.4840   28.1600  -34.2710 C   0  0  0  0  0  0  0  0  0  0  0  0
   -6.7680   27.9250  -34.7430 C   0  0  0  0  0  0  0  0  0  0  0  0
   -4.8010   27.1210  -33.6590 C   0  0  0  0  0  0  0  0  0  0  0  0
   -7.3470   26.6750  -34.6270 C   0  0  0  0  0  0  0  0  0  0  0  0
   -5.3710   25.8650  -33.5520 C   0  0  0  0  0  0  0  0  0  0  0  0
   -6.6470   25.6430  -34.0350 C   0  0  0  0  0  0  0  0  0  0  0  0
   -4.0760   29.4250  -31.4320 N   0  0  0  0  0  0  0  0  0  0  0  0
   -3.9220   28.6960  -30.1620 C   0  0  2  0  0  0  0  0  0  0  0  0
   -4.5220   29.4640  -28.9990 C   0  0  0  0  0  0  0  0  0  0  0  0
   -5.2160   28.8990  -28.1580 O   0  0  0  0  0  0  0  0  0  0  0  0
   -2.4470   28.4290  -29.8830 C   0  0  0  0  0  0  0  0  0  0  0  0
   -1.8320   27.4110  -30.8240 C   0  0  0  0  0  0  0  0  0  0  0  0
   -0.3530   27.2100  -30.5440 C   0  0  0  0  0  0  0  0  0  0  0  0
    0.2650   26.4180  -31.5960 N   0  0  0  0  0  0  0  0  0  0  0  0
    1.3550   25.6760  -31.4460 C   0  0  0  0  0  3  0  0  0  0  0  0
    1.9690   25.5980  -30.2760 N   0  0  0  0  0  0  0  0  0  0  0  0
    1.8210   24.9900  -32.4730 N   0  0  0  0  0  0  0  0  0  0  0  0
   -4.2740   30.7660  -28.9720 N   0  0  0  0  0  0  0  0  0  0  0  0
   -4.8640   31.6240  -27.9630 C   0  0  2  0  0  0  0  0  0  0  0  0
   -6.4020   31.6130  -28.0490 C   0  0  0  0  0  0  0  0  0  0  0  0
   -7.0920   31.5610  -27.0240 O   0  0  0  0  0  0  0  0  0  0  0  0
   -4.3130   33.0390  -28.1190 C   0  0  0  0  0  0  0  0  0  0  0  0
   -4.7050   33.9980  -27.0190 C   0  0  0  0  0  0  0  0  0  0  0  0
   -3.7220   35.1590  -26.9300 C   0  0  0  0  0  0  0  0  0  0  0  0
   -3.5850   35.9010  -28.2550 C   0  0  0  0  0  0  0  0  0  0  0  0
   -3.0200   37.2730  -28.0760 N   0  3  0  0  0  0  0  0  0  0  0  0
   -6.9380   31.6290  -29.2670 N   0  0  0  0  0  0  0  0  0  0  0  0
   -8.3870   31.6910  -29.4500 C   0  0  2  0  0  0  0  0  0  0  0  0
   -9.0670   30.4690  -28.8420 C   0  0  0  0  0  0  0  0  0  0  0  0
  -10.0800   30.5970  -28.1590 O   0  0  0  0  0  0  0  0  0  0  0  0
   -8.7580   31.8240  -30.9190 C   0  0  0  0  0  0  0  0  0  0  0  0
   -8.5230   29.2820  -29.0620 N   0  0  0  0  0  0  0  0  0  0  0  0
   -9.2210   28.1190  -28.5550 C   0  0  2  0  0  0  0  0  0  0  0  0
   -8.9790   27.8960  -27.0600 C   0  0  0  0  0  0  0  0  0  0  0  0
   -9.8720   27.4360  -26.3610 O   0  0  0  0  0  0  0  0  0  0  0  0
   -8.9860   26.8710  -29.4260 C   0  0  0  0  0  0  0  0  0  0  0  0
   -7.7940   26.0430  -29.0450 C   0  0  0  0  0  0  0  0  0  0  0  0
   -7.8630   25.1540  -27.9820 C   0  0  0  0  0  0  0  0  0  0  0  0
   -6.6890   25.9910  -29.8740 C   0  0  0  0  0  0  0  0  0  0  0  0
   -6.7940   24.3280  -27.6730 C   0  0  0  0  0  0  0  0  0  0  0  0
   -5.6190   25.1590  -29.5780 C   0  0  0  0  0  0  0  0  0  0  0  0
   -5.6670   24.3300  -28.4740 C   0  0  0  0  0  0  0  0  0  0  0  0
   -7.8150   28.2910  -26.5550 N   0  0  0  0  0  0  0  0  0  0  0  0
   -7.5710   28.2370  -25.1160 C   0  0  2  0  0  0  0  0  0  0  0  0
   -8.5060   29.1960  -24.3630 C   0  0  0  0  0  0  0  0  0  0  0  0
   -8.9610   28.8860  -23.2640 O   0  0  0  0  0  0  0  0  0  0  0  0
   -6.1070   28.5530  -24.7900 C   0  0  0  0  0  0  0  0  0  0  0  0
   -5.0880   27.4660  -25.1230 C   0  0  0  0  0  0  0  0  0  0  0  0
   -3.6790   27.9360  -24.7980 C   0  0  0  0  0  0  0  0  0  0  0  0
   -5.3930   26.1770  -24.3870 C   0  0  0  0  0  0  0  0  0  0  0  0
   -8.8130   30.3370  -24.9790 N   0  0  0  0  0  0  0  0  0  0  0  0
   -9.7280   31.3100  -24.4010 C   0  0  2  0  0  0  0  0  0  0  0  0
  -11.1210   30.7290  -24.2440 C   0  0  0  0  0  0  0  0  0  0  0  0
  -11.7690   30.9380  -23.2160 O   0  0  0  0  0  0  0  0  0  0  0  0
   -9.7870   32.5780  -25.2500 C   0  0  0  0  0  0  0  0  0  0  0  0
   -8.6860   33.5590  -24.9040 C   0  0  0  0  0  0  0  0  0  0  0  0
   -8.7070   34.7850  -25.8000 C   0  0  0  0  0  0  0  0  0  0  0  0
   -9.5730   35.8910  -25.2270 C   0  0  0  0  0  0  0  0  0  0  0  0
   -9.4760   37.1140  -26.0730 N   0  3  0  0  0  0  0  0  0  0  0  0
  -11.5820   30.0160  -25.2680 N   0  0  0  0  0  0  0  0  0  0  0  0
  -12.8610   29.3260  -25.1930 C   0  0  2  0  0  0  0  0  0  0  0  0
  -12.8780   28.3550  -24.0060 C   0  0  0  0  0  0  0  0  0  0  0  0
  -13.8740   28.2480  -23.2990 O   0  0  0  0  0  0  0  0  0  0  0  0
  -13.1770   28.5810  -26.5040 C   0  0  2  0  0  0  0  0  0  0  0  0
  -13.5580   29.5890  -27.5930 C   0  0  0  0  0  0  0  0  0  0  0  0
  -14.2880   27.5600  -26.2810 C   0  0  0  0  0  0  0  0  0  0  0  0
  -13.8250   28.9740  -28.9500 C   0  0  0  0  0  0  0  0  0  0  0  0
  -11.7610   27.6830  -23.7560 N   0  0  0  0  0  0  0  0  0  0  0  0
  -11.7010   26.7240  -22.6610 C   0  0  2  0  0  0  0  0  0  0  0  0
  -11.5440   27.3890  -21.2950 C   0  0  0  0  0  0  0  0  0  0  0  0
  -12.1060   26.9060  -20.3120 O   0  0  0  0  0  0  0  0  0  0  0  0
  -10.5360   25.7470  -22.8790 C   0  0  0  0  0  0  0  0  0  0  0  0
  -10.5920   24.8980  -24.1530 C   0  0  0  0  0  0  0  0  0  0  0  0
   -9.3300   24.0630  -24.2860 C   0  0  0  0  0  0  0  0  0  0  0  0
  -11.8190   23.9930  -24.1630 C   0  0  0  0  0  0  0  0  0  0  0  0
  -10.7590   28.4690  -21.2230 N   0  0  0  0  0  0  0  0  0  0  0  0
  -10.2450   28.9710  -19.9290 C   0  0  2  0  0  0  0  0  0  0  0  0
  -10.4650   30.4310  -19.6260 C   0  0  0  0  0  0  0  0  0  0  0  0
  -10.1060   30.8840  -18.5410 O   0  0  0  0  0  0  0  0  0  0  0  0
   -8.7340   28.7430  -19.8400 C   0  0  0  0  0  0  0  0  0  0  0  0
   -8.3410   27.3130  -19.9890 C   0  0  0  0  0  0  0  0  0  0  0  0
   -8.6910   26.3510  -19.0700 N   0  0  0  0  0  0  0  0  0  0  0  0
   -7.6590   26.6730  -20.9660 C   0  0  0  0  0  0  0  0  0  0  0  0
   -8.2420   25.1760  -19.4750 C   0  0  0  0  0  0  0  0  0  0  0  0
   -7.6070   25.3450  -20.6200 N   0  0  0  0  0  0  0  0  0  0  0  0
  -10.9690   31.1920  -20.5910 N   0  0  0  0  0  0  0  0  0  0  0  0
  -11.0580   32.6370  -20.4140 C   0  0  2  0  0  0  0  0  0  0  0  0
  -12.4860   33.1180  -20.5730 C   0  0  0  0  0  0  0  0  0  0  0  0
  -12.7450   33.9570  -21.4260 O   0  5  0  0  0  0  0  0  0  0  0  0
  -10.1380   33.3570  -21.4090 C   0  0  0  0  0  0  0  0  0  0  0  0
  -10.0310   34.7310  -21.0910 O   0  0  0  0  0  0  0  0  0  0  0  0
  -13.3890   32.7050  -19.8430 O   0  0  0  0  0  0  0  0  0  0  0  0
    0.5483   28.3599  -35.7623 H   0  0  0  0  0  0  0  0  0  0  0  0
   -0.6079   28.0820  -34.6241 H   0  0  0  0  0  0  0  0  0  0  0  0
    0.9353   28.4228  -34.1636 H   0  0  0  0  0  0  0  0  0  0  0  0
    0.8049   30.6375  -35.0449 H   0  0  0  0  0  0  0  0  0  0  0  0
   -2.0232   29.7239  -35.7500 H   0  0  0  0  0  0  0  0  0  0  0  0
   -0.7134   30.1913  -36.8871 H   0  0  0  0  0  0  0  0  0  0  0  0
   -1.5734   33.5546  -36.8838 H   0  0  0  0  0  0  0  0  0  0  0  0
   -0.7528   32.2218  -37.6256 H   0  0  0  0  0  0  0  0  0  0  0  0
    0.7488   31.9653  -33.3203 H   0  0  0  0  0  0  0  0  0  0  0  0
   -0.2752   30.8651  -30.8842 H   0  0  0  0  0  0  0  0  0  0  0  0
    1.7868   32.3415  -31.0973 H   0  0  0  0  0  0  0  0  0  0  0  0
    0.7965   31.6467  -28.9596 H   0  0  0  0  0  0  0  0  0  0  0  0
   -0.3266   33.0476  -29.0132 H   0  0  0  0  0  0  0  0  0  0  0  0
    0.7661   34.1547  -32.4275 H   0  0  0  0  0  0  0  0  0  0  0  0
    1.4834   34.7645  -30.8978 H   0  0  0  0  0  0  0  0  0  0  0  0
   -0.2965   34.5686  -31.0397 H   0  0  0  0  0  0  0  0  0  0  0  0
    1.5318   33.4451  -27.4633 H   0  0  0  0  0  0  0  0  0  0  0  0
    1.5877   34.5885  -28.8475 H   0  0  0  0  0  0  0  0  0  0  0  0
    2.7107   33.1876  -28.7938 H   0  0  0  0  0  0  0  0  0  0  0  0
   -1.6374   33.2307  -33.1513 H   0  0  0  0  0  0  0  0  0  0  0  0
   -3.6166   34.1478  -31.2256 H   0  0  0  0  0  0  0  0  0  0  0  0
   -4.7772   35.1128  -33.2589 H   0  0  0  0  0  0  0  0  0  0  0  0
   -3.4267   34.4521  -34.2419 H   0  0  0  0  0  0  0  0  0  0  0  0
   -2.8151   36.6763  -33.8762 H   0  0  0  0  0  0  0  0  0  0  0  0
   -1.8805   35.7657  -32.6416 H   0  0  0  0  0  0  0  0  0  0  0  0
   -3.5683   31.6699  -33.7977 H   0  0  0  0  0  0  0  0  0  0  0  0
   -6.2870   30.8433  -33.4695 H   0  0  0  0  0  0  0  0  0  0  0  0
   -3.7662   29.4102  -34.3651 H   0  0  0  0  0  0  0  0  0  0  0  0
   -5.1633   29.9653  -35.3483 H   0  0  0  0  0  0  0  0  0  0  0  0
   -7.3234   28.7313  -35.2082 H   0  0  0  0  0  0  0  0  0  0  0  0
   -3.8084   27.2945  -33.2594 H   0  0  0  0  0  0  0  0  0  0  0  0
   -8.3503   26.5053  -35.0008 H   0  0  0  0  0  0  0  0  0  0  0  0
   -4.8175   25.0557  -33.0898 H   0  0  0  0  0  0  0  0  0  0  0  0
   -7.0970   24.6606  -33.9491 H   0  0  0  0  0  0  0  0  0  0  0  0
   -3.2554   29.6951  -31.9357 H   0  0  0  0  0  0  0  0  0  0  0  0
   -4.4454   27.7326  -30.2509 H   0  0  0  0  0  0  0  0  0  0  0  0
   -2.3487   28.0559  -28.8529 H   0  0  0  0  0  0  0  0  0  0  0  0
   -1.8958   29.3755  -29.9844 H   0  0  0  0  0  0  0  0  0  0  0  0
   -1.9544   27.7625  -31.8591 H   0  0  0  0  0  0  0  0  0  0  0  0
   -2.3524   26.4499  -30.6992 H   0  0  0  0  0  0  0  0  0  0  0  0
   -0.2348   26.6888  -29.5826 H   0  0  0  0  0  0  0  0  0  0  0  0
    0.1417   28.1911  -30.4925 H   0  0  0  0  0  0  0  0  0  0  0  0
   -0.1762   26.4343  -32.5266 H   0  0  0  0  0  0  0  0  0  0  0  0
    2.8141   25.0178  -30.1755 H   0  0  0  0  0  0  0  0  0  0  0  0
    1.6017   26.1175  -29.4660 H   0  0  0  0  0  0  0  0  0  0  0  0
    1.3485   25.0457  -33.3865 H   0  0  0  0  0  0  0  0  0  0  0  0
    2.6571   24.3990  -32.3608 H   0  0  0  0  0  0  0  0  0  0  0  0
   -3.6683   31.1641  -29.6609 H   0  0  0  0  0  0  0  0  0  0  0  0
   -4.5750   31.2450  -26.9716 H   0  0  0  0  0  0  0  0  0  0  0  0
   -4.6792   33.4453  -29.0734 H   0  0  0  0  0  0  0  0  0  0  0  0
   -3.2150   32.9776  -28.1438 H   0  0  0  0  0  0  0  0  0  0  0  0
   -4.7142   33.4603  -26.0594 H   0  0  0  0  0  0  0  0  0  0  0  0
   -5.7102   34.3931  -27.2276 H   0  0  0  0  0  0  0  0  0  0  0  0
   -2.7360   34.7669  -26.6401 H   0  0  0  0  0  0  0  0  0  0  0  0
   -4.0757   35.8646  -26.1639 H   0  0  0  0  0  0  0  0  0  0  0  0
   -4.5788   35.9846  -28.7190 H   0  0  0  0  0  0  0  0  0  0  0  0
   -2.9190   35.3268  -28.9158 H   0  0  0  0  0  0  0  0  0  0  0  0
   -2.9469   37.7260  -28.9735 H   0  0  0  0  0  0  0  0  0  0  0  0
   -2.1055   37.2078  -27.6571 H   0  0  0  0  0  0  0  0  0  0  0  0
   -3.6265   37.8106  -27.4768 H   0  0  0  0  0  0  0  0  0  0  0  0
   -6.3409   31.5982  -30.0686 H   0  0  0  0  0  0  0  0  0  0  0  0
   -8.7555   32.5841  -28.9242 H   0  0  0  0  0  0  0  0  0  0  0  0
   -9.8526   31.8676  -31.0182 H   0  0  0  0  0  0  0  0  0  0  0  0
   -8.3739   30.9556  -31.4743 H   0  0  0  0  0  0  0  0  0  0  0  0
   -8.3159   32.7449  -31.3269 H   0  0  0  0  0  0  0  0  0  0  0  0
   -7.6608   29.1919  -29.5605 H   0  0  0  0  0  0  0  0  0  0  0  0
  -10.2931   28.3465  -28.6488 H   0  0  0  0  0  0  0  0  0  0  0  0
   -8.8522   27.2020  -30.4664 H   0  0  0  0  0  0  0  0  0  0  0  0
   -9.8798   26.2336  -29.3561 H   0  0  0  0  0  0  0  0  0  0  0  0
   -8.7662   25.1048  -27.3845 H   0  0  0  0  0  0  0  0  0  0  0  0
   -6.6582   26.6072  -30.7653 H   0  0  0  0  0  0  0  0  0  0  0  0
   -6.8413   23.6812  -26.8044 H   0  0  0  0  0  0  0  0  0  0  0  0
   -4.7421   25.1594  -30.2153 H   0  0  0  0  0  0  0  0  0  0  0  0
   -4.8276   23.6861  -28.2375 H   0  0  0  0  0  0  0  0  0  0  0  0
   -7.0991   28.6285  -27.1662 H   0  0  0  0  0  0  0  0  0  0  0  0
   -7.7835   27.2133  -24.7741 H   0  0  0  0  0  0  0  0  0  0  0  0
   -6.0404   28.7549  -23.7108 H   0  0  0  0  0  0  0  0  0  0  0  0
   -5.8269   29.4573  -25.3502 H   0  0  0  0  0  0  0  0  0  0  0  0
   -5.1445   27.2650  -26.2030 H   0  0  0  0  0  0  0  0  0  0  0  0
   -2.9610   27.1400  -25.0446 H   0  0  0  0  0  0  0  0  0  0  0  0
   -3.6096   28.1731  -23.7261 H   0  0  0  0  0  0  0  0  0  0  0  0
   -3.4470   28.8348  -25.3882 H   0  0  0  0  0  0  0  0  0  0  0  0
   -6.4141   25.8484  -24.6307 H   0  0  0  0  0  0  0  0  0  0  0  0
   -5.3109   26.3454  -23.3031 H   0  0  0  0  0  0  0  0  0  0  0  0
   -4.6755   25.4014  -24.6930 H   0  0  0  0  0  0  0  0  0  0  0  0
   -8.4005   30.5314  -25.8690 H   0  0  0  0  0  0  0  0  0  0  0  0
   -9.3525   31.5797  -23.4029 H   0  0  0  0  0  0  0  0  0  0  0  0
  -10.7589   33.0667  -25.0872 H   0  0  0  0  0  0  0  0  0  0  0  0
   -9.6901   32.2982  -26.3094 H   0  0  0  0  0  0  0  0  0  0  0  0
   -7.7146   33.0552  -25.0160 H   0  0  0  0  0  0  0  0  0  0  0  0
   -8.8138   33.8811  -23.8600 H   0  0  0  0  0  0  0  0  0  0  0  0
   -9.1027   34.4983  -26.7855 H   0  0  0  0  0  0  0  0  0  0  0  0
   -7.6793   35.1606  -25.9126 H   0  0  0  0  0  0  0  0  0  0  0  0
   -9.2332   36.1269  -24.2077 H   0  0  0  0  0  0  0  0  0  0  0  0
  -10.6194   35.5534  -25.1958 H   0  0  0  0  0  0  0  0  0  0  0  0
  -10.0554   37.8401  -25.6816 H   0  0  0  0  0  0  0  0  0  0  0  0
   -9.7887   36.9018  -27.0075 H   0  0  0  0  0  0  0  0  0  0  0  0
   -8.5184   37.4274  -26.1021 H   0  0  0  0  0  0  0  0  0  0  0  0
  -11.0392   29.9529  -26.1055 H   0  0  0  0  0  0  0  0  0  0  0  0
  -13.6458   30.0798  -25.0321 H   0  0  0  0  0  0  0  0  0  0  0  0
  -12.2740   28.0432  -26.8285 H   0  0  0  0  0  0  0  0  0  0  0  0
  -12.7335   30.3095  -27.6983 H   0  0  0  0  0  0  0  0  0  0  0  0
  -14.4673   30.1170  -27.2699 H   0  0  0  0  0  0  0  0  0  0  0  0
  -13.9838   26.8528  -25.4953 H   0  0  0  0  0  0  0  0  0  0  0  0
  -14.4748   27.0112  -27.2159 H   0  0  0  0  0  0  0  0  0  0  0  0
  -15.2067   28.0795  -25.9710 H   0  0  0  0  0  0  0  0  0  0  0  0
  -14.0898   29.7661  -29.6658 H   0  0  0  0  0  0  0  0  0  0  0  0
  -14.6565   28.2583  -28.8710 H   0  0  0  0  0  0  0  0  0  0  0  0
  -12.9227   28.4508  -29.2994 H   0  0  0  0  0  0  0  0  0  0  0  0
  -10.9529   27.8365  -24.3247 H   0  0  0  0  0  0  0  0  0  0  0  0
  -12.6423   26.1548  -22.6580 H   0  0  0  0  0  0  0  0  0  0  0  0
  -10.5088   25.0607  -22.0198 H   0  0  0  0  0  0  0  0  0  0  0  0
   -9.6066   26.3347  -22.9085 H   0  0  0  0  0  0  0  0  0  0  0  0
  -10.6553   25.5761  -25.0168 H   0  0  0  0  0  0  0  0  0  0  0  0
   -9.3847   23.4596  -25.2041 H   0  0  0  0  0  0  0  0  0  0  0  0
   -9.2370   23.3977  -23.4150 H   0  0  0  0  0  0  0  0  0  0  0  0
   -8.4544   24.7270  -24.3353 H   0  0  0  0  0  0  0  0  0  0  0  0
  -12.7274   24.6058  -24.0663 H   0  0  0  0  0  0  0  0  0  0  0  0
  -11.7613   23.2876  -23.3209 H   0  0  0  0  0  0  0  0  0  0  0  0
  -11.8537   23.4327  -25.1090 H   0  0  0  0  0  0  0  0  0  0  0  0
  -10.5130   28.9497  -22.0647 H   0  0  0  0  0  0  0  0  0  0  0  0
  -10.7429   28.3883  -19.1400 H   0  0  0  0  0  0  0  0  0  0  0  0
   -8.3846   29.1002  -18.8600 H   0  0  0  0  0  0  0  0  0  0  0  0
   -8.2463   29.3234  -20.6370 H   0  0  0  0  0  0  0  0  0  0  0  0
   -7.2314   27.1258  -21.8593 H   0  0  0  0  0  0  0  0  0  0  0  0
   -8.3734   24.2293  -18.9530 H   0  0  0  0  0  0  0  0  0  0  0  0
   -7.1473   24.6017  -21.1652 H   0  0  0  0  0  0  0  0  0  0  0  0
  -11.2882   30.7731  -21.4411 H   0  0  0  0  0  0  0  0  0  0  0  0
  -10.7240   32.8802  -19.3946 H   0  0  0  0  0  0  0  0  0  0  0  0
  -10.5516   33.2528  -22.4229 H   0  0  0  0  0  0  0  0  0  0  0  0
   -9.1384   32.8995  -21.3719 H   0  0  0  0  0  0  0  0  0  0  0  0
  -10.8921   35.1308  -21.1250 H   0  0  0  0  0  0  0  0  0  0  0  0
  1  2  1  0  0  0  0
  1123  1  0  0  0  0
  1124  1  0  0  0  0
  1125  1  0  0  0  0
  2  3  1  0  0  0  0
  2  5  1  0  0  0  0
  2126  1  6  0  0  0
  3  4  2  0  0  0  0
  3  9  1  0  0  0  0
  5  6  1  0  0  0  0
  5127  1  0  0  0  0
  5128  1  0  0  0  0
  6  7  2  0  0  0  0
  6  8  1  0  0  0  0
  8129  1  0  0  0  0
  8130  1  0  0  0  0
  9 10  1  0  0  0  0
  9131  1  0  0  0  0
 10 11  1  0  0  0  0
 10 13  1  0  0  0  0
 10132  1  1  0  0  0
 11 12  2  0  0  0  0
 11 17  1  0  0  0  0
 13 14  1  0  0  0  0
 13 15  1  0  0  0  0
 13133  1  6  0  0  0
 14 16  1  0  0  0  0
 14134  1  0  0  0  0
 14135  1  0  0  0  0
 15136  1  0  0  0  0
 15137  1  0  0  0  0
 15138  1  0  0  0  0
 16139  1  0  0  0  0
 16140  1  0  0  0  0
 16141  1  0  0  0  0
 17 18  1  0  0  0  0
 17142  1  0  0  0  0
 18 19  1  0  0  0  0
 18 21  1  0  0  0  0
 18143  1  1  0  0  0
 19 20  2  0  0  0  0
 19 26  1  0  0  0  0
 21 22  1  0  0  0  0
 21144  1  0  0  0  0
 21145  1  0  0  0  0
 22 23  1  0  0  0  0
 22146  1  0  0  0  0
 22147  1  0  0  0  0
 23 24  1  0  0  0  0
 23 25  2  0  0  0  0
 26 27  1  0  0  0  0
 26148  1  0  0  0  0
 27 28  1  0  0  0  0
 27 30  1  0  0  0  0
 27149  1  6  0  0  0
 28 29  2  0  0  0  0
 28 37  1  0  0  0  0
 30 31  1  0  0  0  0
 30150  1  0  0  0  0
 30151  1  0  0  0  0
 31 32  2  0  0  0  0
 31 33  1  0  0  0  0
 32 34  1  0  0  0  0
 32152  1  0  0  0  0
 33 35  2  0  0  0  0
 33153  1  0  0  0  0
 34 36  2  0  0  0  0
 34154  1  0  0  0  0
 35 36  1  0  0  0  0
 35155  1  0  0  0  0
 36156  1  0  0  0  0
 37 38  1  0  0  0  0
 37157  1  0  0  0  0
 38 39  1  0  0  0  0
 38 41  1  0  0  0  0
 38158  1  6  0  0  0
 39 40  2  0  0  0  0
 39 48  1  0  0  0  0
 41 42  1  0  0  0  0
 41159  1  0  0  0  0
 41160  1  0  0  0  0
 42 43  1  0  0  0  0
 42161  1  0  0  0  0
 42162  1  0  0  0  0
 43 44  1  0  0  0  0
 43163  1  0  0  0  0
 43164  1  0  0  0  0
 44 45  1  0  0  0  0
 44165  1  0  0  0  0
 45 46  1  0  0  0  0
 45 47  1  0  0  0  0
 46166  1  0  0  0  0
 46167  1  0  0  0  0
 47168  1  0  0  0  0
 47169  1  0  0  0  0
 48 49  1  0  0  0  0
 48170  1  0  0  0  0
 49 50  1  0  0  0  0
 49 52  1  0  0  0  0
 49171  1  1  0  0  0
 50 51  2  0  0  0  0
 50 57  1  0  0  0  0
 52 53  1  0  0  0  0
 52172  1  0  0  0  0
 52173  1  0  0  0  0
 53 54  1  0  0  0  0
 53174  1  0  0  0  0
 53175  1  0  0  0  0
 54 55  1  0  0  0  0
 54176  1  0  0  0  0
 54177  1  0  0  0  0
 55 56  1  0  0  0  0
 55178  1  0  0  0  0
 55179  1  0  0  0  0
 56180  1  0  0  0  0
 56181  1  0  0  0  0
 56182  1  0  0  0  0
 57 58  1  0  0  0  0
 57183  1  0  0  0  0
 58 59  1  0  0  0  0
 58 61  1  0  0  0  0
 58184  1  1  0  0  0
 59 60  2  0  0  0  0
 59 62  1  0  0  0  0
 61185  1  0  0  0  0
 61186  1  0  0  0  0
 61187  1  0  0  0  0
 62 63  1  0  0  0  0
 62188  1  0  0  0  0
 63 64  1  0  0  0  0
 63 66  1  0  0  0  0
 63189  1  6  0  0  0
 64 65  2  0  0  0  0
 64 73  1  0  0  0  0
 66 67  1  0  0  0  0
 66190  1  0  0  0  0
 66191  1  0  0  0  0
 67 68  2  0  0  0  0
 67 69  1  0  0  0  0
 68 70  1  0  0  0  0
 68192  1  0  0  0  0
 69 71  2  0  0  0  0
 69193  1  0  0  0  0
 70 72  2  0  0  0  0
 70194  1  0  0  0  0
 71 72  1  0  0  0  0
 71195  1  0  0  0  0
 72196  1  0  0  0  0
 73 74  1  0  0  0  0
 73197  1  0  0  0  0
 74 75  1  0  0  0  0
 74 77  1  0  0  0  0
 74198  1  1  0  0  0
 75 76  2  0  0  0  0
 75 81  1  0  0  0  0
 77 78  1  0  0  0  0
 77199  1  0  0  0  0
 77200  1  0  0  0  0
 78 79  1  0  0  0  0
 78 80  1  0  0  0  0
 78201  1  0  0  0  0
 79202  1  0  0  0  0
 79203  1  0  0  0  0
 79204  1  0  0  0  0
 80205  1  0  0  0  0
 80206  1  0  0  0  0
 80207  1  0  0  0  0
 81 82  1  0  0  0  0
 81208  1  0  0  0  0
 82 83  1  0  0  0  0
 82 85  1  0  0  0  0
 82209  1  1  0  0  0
 83 84  2  0  0  0  0
 83 90  1  0  0  0  0
 85 86  1  0  0  0  0
 85210  1  0  0  0  0
 85211  1  0  0  0  0
 86 87  1  0  0  0  0
 86212  1  0  0  0  0
 86213  1  0  0  0  0
 87 88  1  0  0  0  0
 87214  1  0  0  0  0
 87215  1  0  0  0  0
 88 89  1  0  0  0  0
 88216  1  0  0  0  0
 88217  1  0  0  0  0
 89218  1  0  0  0  0
 89219  1  0  0  0  0
 89220  1  0  0  0  0
 90 91  1  0  0  0  0
 90221  1  0  0  0  0
 91 92  1  0  0  0  0
 91 94  1  0  0  0  0
 91222  1  1  0  0  0
 92 93  2  0  0  0  0
 92 98  1  0  0  0  0
 94 95  1  0  0  0  0
 94 96  1  0  0  0  0
 94223  1  6  0  0  0
 95 97  1  0  0  0  0
 95224  1  0  0  0  0
 95225  1  0  0  0  0
 96226  1  0  0  0  0
 96227  1  0  0  0  0
 96228  1  0  0  0  0
 97229  1  0  0  0  0
 97230  1  0  0  0  0
 97231  1  0  0  0  0
 98 99  1  0  0  0  0
 98232  1  0  0  0  0
 99100  1  0  0  0  0
 99102  1  0  0  0  0
 99233  1  1  0  0  0
100101  2  0  0  0  0
100106  1  0  0  0  0
102103  1  0  0  0  0
102234  1  0  0  0  0
102235  1  0  0  0  0
103104  1  0  0  0  0
103105  1  0  0  0  0
103236  1  0  0  0  0
104237  1  0  0  0  0
104238  1  0  0  0  0
104239  1  0  0  0  0
105240  1  0  0  0  0
105241  1  0  0  0  0
105242  1  0  0  0  0
106107  1  0  0  0  0
106243  1  0  0  0  0
107108  1  0  0  0  0
107110  1  0  0  0  0
107244  1  1  0  0  0
108109  2  0  0  0  0
108116  1  0  0  0  0
110111  1  0  0  0  0
110245  1  0  0  0  0
110246  1  0  0  0  0
111112  1  0  0  0  0
111113  2  0  0  0  0
112114  2  0  0  0  0
113115  1  0  0  0  0
113247  1  0  0  0  0
114115  1  0  0  0  0
114248  1  0  0  0  0
115249  1  0  0  0  0
116117  1  0  0  0  0
116250  1  0  0  0  0
117118  1  0  0  0  0
117120  1  0  0  0  0
117251  1  1  0  0  0
118119  1  0  0  0  0
118122  2  0  0  0  0
120121  1  0  0  0  0
120252  1  0  0  0  0
120253  1  0  0  0  0
121254  1  0  0  0  0
M  CHG  5   1   1  24  -1  56   1  89   1 119  -1
M  END
