5afj_ligand
 OpenBabel08222323353D

 34 35  0  0  1  0  0  0  0  0999 V2000
   11.5740   30.9420   11.0240 C   0  0  0  0  0  0  0  0  0  0  0  0
   12.2840   32.0860   10.3900 N   0  3  2  0  0  0  0  0  0  0  0  0
   11.4980   32.7130    9.3650 C   0  0  0  0  0  0  0  0  0  0  0  0
   11.3370   34.1920    9.5200 C   0  0  2  0  0  0  0  0  0  0  0  0
   10.2050   34.3600   10.4630 C   0  0  0  0  0  0  0  0  0  0  0  0
   10.9950   34.7520    8.3320 O   0  0  0  0  0  0  0  0  0  0  0  0
   12.5490   34.9230    9.9860 C   0  0  0  0  0  0  0  0  0  0  0  0
   12.5870   36.1550   10.0180 O   0  0  0  0  0  0  0  0  0  0  0  0
   13.7740   34.1160   10.4230 C   0  0  0  0  0  0  0  0  0  0  0  0
   13.5820   32.6340   10.6280 C   0  0  2  0  0  0  0  0  0  0  0  0
   14.7330   31.7980   11.0390 C   0  0  0  0  0  0  0  0  0  0  0  0
   15.0250   31.5910   12.3770 C   0  0  0  0  0  0  0  0  0  0  0  0
   16.0910   30.8300   12.7140 C   0  0  0  0  0  0  0  0  0  0  0  0
   16.8740   30.2690   11.7090 C   0  0  0  0  0  0  0  0  0  0  0  0
   18.4040   29.1630   12.1550 Br  0  0  0  0  0  0  0  0  0  0  0  0
   16.5920   30.4710   10.4060 C   0  0  0  0  0  0  0  0  0  0  0  0
   15.5120   31.2430   10.0600 C   0  0  0  0  0  0  0  0  0  0  0  0
   10.5806   30.8276   10.5657 H   0  0  0  0  0  0  0  0  0  0  0  0
   11.4610   31.1322   12.1015 H   0  0  0  0  0  0  0  0  0  0  0  0
   12.1555   30.0205   10.8733 H   0  0  0  0  0  0  0  0  0  0  0  0
   11.9209   32.6966   11.1051 H   0  0  0  0  0  0  0  0  0  0  0  0
   10.4973   32.2565    9.3727 H   0  0  0  0  0  0  0  0  0  0  0  0
   11.9815   32.5204    8.3959 H   0  0  0  0  0  0  0  0  0  0  0  0
   10.0228   35.4319   10.6298 H   0  0  0  0  0  0  0  0  0  0  0  0
   10.4502   33.8765   11.4201 H   0  0  0  0  0  0  0  0  0  0  0  0
    9.3023   33.8963   10.0386 H   0  0  0  0  0  0  0  0  0  0  0  0
   10.8129   35.6757    8.4593 H   0  0  0  0  0  0  0  0  0  0  0  0
   14.1276   34.5392   11.3747 H   0  0  0  0  0  0  0  0  0  0  0  0
   14.5489   34.2465    9.6533 H   0  0  0  0  0  0  0  0  0  0  0  0
   13.3247   32.7972   11.6849 H   0  0  0  0  0  0  0  0  0  0  0  0
   14.4047   32.0350   13.1472 H   0  0  0  0  0  0  0  0  0  0  0  0
   16.3333   30.6586   13.7566 H   0  0  0  0  0  0  0  0  0  0  0  0
   17.2141   30.0266    9.6375 H   0  0  0  0  0  0  0  0  0  0  0  0
   15.2766   31.4127    9.0156 H   0  0  0  0  0  0  0  0  0  0  0  0
  1  2  1  0  0  0  0
  1 18  1  0  0  0  0
  1 19  1  0  0  0  0
  1 20  1  0  0  0  0
  2  3  1  0  0  0  0
  2 10  1  0  0  0  0
  2 21  1  1  0  0  0
  3  4  1  0  0  0  0
  3 22  1  0  0  0  0
  3 23  1  0  0  0  0
  4  5  1  0  0  0  0
  4  6  1  6  0  0  0
  4  7  1  0  0  0  0
  5 24  1  0  0  0  0
  5 25  1  0  0  0  0
  5 26  1  0  0  0  0
  6 27  1  0  0  0  0
  7  8  2  0  0  0  0
  7  9  1  0  0  0  0
  9 10  1  0  0  0  0
  9 28  1  0  0  0  0
  9 29  1  0  0  0  0
 10 11  1  0  0  0  0
 10 30  1  1  0  0  0
 11 12  2  0  0  0  0
 11 17  1  0  0  0  0
 12 13  1  0  0  0  0
 12 31  1  0  0  0  0
 13 14  2  0  0  0  0
 13 32  1  0  0  0  0
 14 15  1  0  0  0  0
 14 16  1  0  0  0  0
 16 17  2  0  0  0  0
 16 33  1  0  0  0  0
 17 34  1  0  0  0  0
M  CHG  1   2   1
M  END
