5afk_ligand
 OpenBabel08222323353D

 28 29  0  0  0  0  0  0  0  0999 V2000
  -50.6760   -0.9890  -23.2510 O   0  0  0  0  0  0  0  0  0  0  0  0
  -51.6980   -1.5910  -22.9560 C   0  0  0  0  0  0  0  0  0  0  0  0
  -52.5610   -2.1420  -23.9740 N   0  0  0  0  0  0  0  0  0  0  0  0
  -52.3460   -2.0990  -25.4030 C   0  0  0  0  0  0  0  0  0  0  0  0
  -51.0710   -2.0510  -25.9650 C   0  0  0  0  0  0  0  0  0  0  0  0
  -50.9050   -2.0380  -27.3450 C   0  0  0  0  0  0  0  0  0  0  0  0
  -52.0200   -2.0960  -28.1690 C   0  0  0  0  0  0  0  0  0  0  0  0
  -51.8690   -2.0880  -29.4840 F   0  0  0  0  0  0  0  0  0  0  0  0
  -53.2920   -2.1540  -27.6260 C   0  0  0  0  0  0  0  0  0  0  0  0
  -53.4490   -2.1670  -26.2440 C   0  0  0  0  0  0  0  0  0  0  0  0
  -54.6670   -2.2320  -25.7130 F   0  0  0  0  0  0  0  0  0  0  0  0
  -52.0070   -1.7270  -21.5620 N   0  0  0  0  0  0  0  0  0  0  0  0
  -51.1990   -1.2020  -20.4970 C   0  0  0  0  0  0  0  0  0  0  0  0
  -52.0740   -1.0590  -19.3040 C   0  0  0  0  0  0  0  0  0  0  0  0
  -53.2880   -1.8740  -19.5970 C   0  0  0  0  0  0  0  0  0  0  0  0
  -53.1380   -2.3860  -20.9900 C   0  0  0  0  0  0  0  0  0  0  0  0
  -53.3921   -2.6000  -23.6585 H   0  0  0  0  0  0  0  0  0  0  0  0
  -50.2006   -2.0235  -25.3194 H   0  0  0  0  0  0  0  0  0  0  0  0
  -49.9113   -1.9829  -27.7746 H   0  0  0  0  0  0  0  0  0  0  0  0
  -54.1604   -2.1891  -28.2738 H   0  0  0  0  0  0  0  0  0  0  0  0
  -50.7905   -0.2216  -20.7832 H   0  0  0  0  0  0  0  0  0  0  0  0
  -50.3725   -1.8934  -20.2762 H   0  0  0  0  0  0  0  0  0  0  0  0
  -52.3471   -0.0043  -19.1523 H   0  0  0  0  0  0  0  0  0  0  0  0
  -51.5642   -1.4386  -18.4062 H   0  0  0  0  0  0  0  0  0  0  0  0
  -54.1908   -1.2505  -19.5180 H   0  0  0  0  0  0  0  0  0  0  0  0
  -53.3596   -2.7141  -18.8906 H   0  0  0  0  0  0  0  0  0  0  0  0
  -52.9736   -3.4735  -20.9762 H   0  0  0  0  0  0  0  0  0  0  0  0
  -54.0419   -2.1592  -21.5744 H   0  0  0  0  0  0  0  0  0  0  0  0
  1  2  2  0  0  0  0
  2  3  1  0  0  0  0
  2 12  1  0  0  0  0
  3  4  1  0  0  0  0
  3 17  1  0  0  0  0
  4  5  2  0  0  0  0
  4 10  1  0  0  0  0
  5  6  1  0  0  0  0
  5 18  1  0  0  0  0
  6  7  2  0  0  0  0
  6 19  1  0  0  0  0
  7  8  1  0  0  0  0
  7  9  1  0  0  0  0
  9 10  2  0  0  0  0
  9 20  1  0  0  0  0
 10 11  1  0  0  0  0
 12 13  1  0  0  0  0
 12 16  1  0  0  0  0
 13 14  1  0  0  0  0
 13 21  1  0  0  0  0
 13 22  1  0  0  0  0
 14 15  1  0  0  0  0
 14 23  1  0  0  0  0
 14 24  1  0  0  0  0
 15 16  1  0  0  0  0
 15 25  1  0  0  0  0
 15 26  1  0  0  0  0
 16 27  1  0  0  0  0
 16 28  1  0  0  0  0
M  END
