5agj_ligand
 OpenBabel08222323353D

 48 53  0  0  1  0  0  0  0  0999 V2000
   26.5010   58.8790    9.9720 C   0  0  0  0  0  0  0  0  0  0  0  0
   25.5270   59.9950    9.6710 C   0  0  0  0  0  0  0  0  0  0  0  0
   25.1390   60.5180    8.4430 C   0  0  0  0  0  0  0  0  0  0  0  0
   24.9740   60.5040   10.9160 C   0  0  0  0  0  0  0  0  0  0  0  0
   24.2050   61.5530    8.4150 C   0  0  0  0  0  0  0  0  0  0  0  0
   24.0300   61.5460   10.8720 C   0  0  0  0  0  0  0  0  0  0  0  0
   23.6550   62.0730    9.6130 C   0  0  0  0  0  0  0  0  0  0  0  0
   21.3910   61.7540   17.3110 P   0  0  0  0  0  0  0  0  0  0  0  0
   21.5580   60.5680   18.2340 O   0  0  0  0  0  1  0  0  0  0  0  0
   20.2030   61.6600   16.3930 O   0  0  0  0  0  1  0  0  0  0  0  0
   21.6450   63.0990   17.9720 O   0  0  0  0  0  0  0  0  0  0  0  0
   27.1500   60.5760   16.5510 N   0  0  0  0  0  0  0  0  0  0  0  0
   27.1520   59.2990   16.9880 C   0  0  0  0  0  0  0  0  0  0  0  0
   27.8290   59.2050   18.1530 N   0  0  0  0  0  0  0  0  0  0  0  0
   28.2590   60.4520   18.4610 C   0  0  0  0  0  0  0  0  0  0  0  0
   29.0270   61.0430   19.5630 C   0  0  0  0  0  0  0  0  0  0  0  0
   29.4780   60.2510   20.5690 N   0  0  0  0  0  0  0  0  0  0  0  0
   29.2640   62.3700   19.5340 N   0  0  0  0  0  0  0  0  0  0  0  0
   28.8120   63.1430   18.5280 C   0  0  0  0  0  0  0  0  0  0  0  0
   28.0940   62.6680   17.4970 N   0  0  0  0  0  0  0  0  0  0  0  0
   27.7990   61.3470   17.4210 C   0  0  0  0  0  0  0  0  0  0  0  0
   22.7140   61.6360   16.3830 O   0  0  0  0  0  0  0  0  0  0  0  0
   23.0850   60.3830   15.7810 C   0  0  0  0  0  0  0  0  0  0  0  0
   24.2500   60.6710   14.8470 C   0  0  1  0  0  0  0  0  0  0  0  0
   25.1830   61.4680   15.5870 O   0  0  0  0  0  0  0  0  0  0  0  0
   24.9920   59.4410   14.3430 C   0  0  1  0  0  0  0  0  0  0  0  0
   24.6620   59.0850   13.0070 O   0  0  0  0  0  0  0  0  0  0  0  0
   26.4070   59.9440   14.2800 C   0  0  1  0  0  0  0  0  0  0  0  0
   26.5220   60.3880   12.9440 O   0  0  0  0  0  0  0  0  0  0  0  0
   26.5110   61.0700   15.3070 C   0  0  2  0  0  0  0  0  0  0  0  0
   23.8420   62.0400    7.2110 F   0  0  0  0  0  0  0  0  0  0  0  0
   26.3540   58.7180   11.4010 O   0  3  0  0  0  2  0  0  0  0  0  0
   25.5670   59.7410   12.1220 B   0  5  2  0  0  0  0  0  0  0  0  0
   27.5294   59.1658    9.7073 H   0  0  0  0  0  0  0  0  0  0  0  0
   26.2282   57.9573    9.4373 H   0  0  0  0  0  0  0  0  0  0  0  0
   25.5559   60.1275    7.5217 H   0  0  0  0  0  0  0  0  0  0  0  0
   23.5977   61.9381   11.7855 H   0  0  0  0  0  0  0  0  0  0  0  0
   22.9380   62.8846    9.5646 H   0  0  0  0  0  0  0  0  0  0  0  0
   26.6762   58.4645   16.4751 H   0  0  0  0  0  0  0  0  0  0  0  0
   30.0175   60.6609   21.3448 H   0  0  0  0  0  0  0  0  0  0  0  0
   29.2807   59.2401   20.5566 H   0  0  0  0  0  0  0  0  0  0  0  0
   29.0393   64.2027   18.5516 H   0  0  0  0  0  0  0  0  0  0  0  0
   22.2380   59.9703   15.2134 H   0  0  0  0  0  0  0  0  0  0  0  0
   23.3905   59.6659   16.5572 H   0  0  0  0  0  0  0  0  0  0  0  0
   23.8752   61.2328   13.9787 H   0  0  0  0  0  0  0  0  0  0  0  0
   24.8631   58.5843   15.0208 H   0  0  0  0  0  0  0  0  0  0  0  0
   27.1440   59.1574   14.4994 H   0  0  0  0  0  0  0  0  0  0  0  0
   27.0906   61.9110   14.8986 H   0  0  0  0  0  0  0  0  0  0  0  0
  1 32  1  0  0  0  0
  1 34  1  0  0  0  0
  1 35  1  0  0  0  0
  2  1  1  0  0  0  0
  2  3  2  0  0  0  0
  3  5  1  0  0  0  0
  3 36  1  0  0  0  0
  4  2  1  0  0  0  0
  4  6  2  0  0  0  0
  5 31  1  0  0  0  0
  6  7  1  0  0  0  0
  6 37  1  0  0  0  0
  7  5  2  0  0  0  0
  7 38  1  0  0  0  0
  8  9  1  0  0  0  0
  8 10  1  0  0  0  0
  8 11  2  0  0  0  0
 12 13  1  0  0  0  0
 12 21  1  0  0  0  0
 13 14  2  0  0  0  0
 13 39  1  0  0  0  0
 15 14  1  0  0  0  0
 15 16  2  0  0  0  0
 16 17  1  0  0  0  0
 16 18  1  0  0  0  0
 17 40  1  0  0  0  0
 17 41  1  0  0  0  0
 19 18  2  0  0  0  0
 19 42  1  0  0  0  0
 20 19  1  0  0  0  0
 21 15  1  0  0  0  0
 21 20  2  0  0  0  0
 22  8  1  0  0  0  0
 23 22  1  0  0  0  0
 23 43  1  0  0  0  0
 23 44  1  0  0  0  0
 24 23  1  0  0  0  0
 24 25  1  0  0  0  0
 24 45  1  6  0  0  0
 25 30  1  0  0  0  0
 26 24  1  0  0  0  0
 26 28  1  0  0  0  0
 26 46  1  1  0  0  0
 27 26  1  0  0  0  0
 27 33  1  0  0  0  0
 28 29  1  0  0  0  0
 28 30  1  0  0  0  0
 28 47  1  1  0  0  0
 29 33  1  0  0  0  0
 30 12  1  0  0  0  0
 30 48  1  6  0  0  0
 33  4  1  6  0  0  0
 33 32  1  0  0  0  0
M  CHG  2  32   1  33  -1
M  ZCH  2  32   0  33   0
M  HYD  3   9   0  10   0  32   0
M  ZBO  1  53   0
M  END
