5ai0_ligand
 OpenBabel08222323353D

 19 20  0  0  0  0  0  0  0  0999 V2000
   13.3810   14.5180   27.4710 C   0  0  0  0  0  0  0  0  0  0  0  0
   12.3990   14.4430   28.5050 C   0  0  0  0  0  0  0  0  0  0  0  0
   13.6290   13.4070   26.6450 C   0  0  0  0  0  0  0  0  0  0  0  0
   11.6770   13.2690   28.6580 C   0  0  0  0  0  0  0  0  0  0  0  0
   12.8990   12.2240   26.8050 C   0  0  0  0  0  0  0  0  0  0  0  0
   11.9120   12.1550   27.8410 C   0  0  0  0  0  0  0  0  0  0  0  0
   11.1430   10.9480   28.0820 C   0  0  0  0  0  0  0  0  0  0  0  0
   11.6770    9.6030   28.2800 C   0  0  0  0  0  0  0  0  0  0  0  0
    9.7770   10.9230   28.1550 N   0  0  0  0  0  0  0  0  0  0  0  0
   10.6110    8.7880   28.4700 N   0  0  0  0  0  0  0  0  0  0  0  0
   13.0300    9.2580   28.2600 N   0  0  0  0  0  0  0  0  0  0  0  0
    9.4720    9.5970   28.3840 O   0  0  0  0  0  0  0  0  0  0  0  0
   13.9381   15.4359   27.3219 H   0  0  0  0  0  0  0  0  0  0  0  0
   12.2210   15.2890   29.1589 H   0  0  0  0  0  0  0  0  0  0  0  0
   14.3923   13.4677   25.8777 H   0  0  0  0  0  0  0  0  0  0  0  0
   10.9143   13.2118   29.4262 H   0  0  0  0  0  0  0  0  0  0  0  0
   13.0773   11.3742   26.1561 H   0  0  0  0  0  0  0  0  0  0  0  0
   13.3142    8.2794   28.4101 H   0  0  0  0  0  0  0  0  0  0  0  0
   13.7437    9.9821   28.0951 H   0  0  0  0  0  0  0  0  0  0  0  0
  1  2  2  0  0  0  0
  1  3  1  0  0  0  0
  1 13  1  0  0  0  0
  2  4  1  0  0  0  0
  2 14  1  0  0  0  0
  3  5  2  0  0  0  0
  3 15  1  0  0  0  0
  4  6  2  0  0  0  0
  4 16  1  0  0  0  0
  5  6  1  0  0  0  0
  5 17  1  0  0  0  0
  6  7  1  0  0  0  0
  7  8  1  0  0  0  0
  7  9  2  0  0  0  0
  8 10  2  0  0  0  0
  8 11  1  0  0  0  0
  9 12  1  0  0  0  0
 10 12  1  0  0  0  0
 11 18  1  0  0  0  0
 11 19  1  0  0  0  0
M  END
