5ai1_ligand
 OpenBabel08222323353D

 36 39  0  0  1  0  0  0  0  0999 V2000
    4.4080   11.5600   -4.1220 C   0  0  0  0  0  0  0  0  0  0  0  0
    4.4180   10.7020   -5.2380 C   0  0  0  0  0  0  0  0  0  0  0  0
    3.9490   11.1780   -6.4650 C   0  0  0  0  0  0  0  0  0  0  0  0
    3.4770   12.5150   -6.5790 C   0  0  0  0  0  0  0  0  0  0  0  0
    3.4740   13.3610   -5.4640 C   0  0  0  0  0  0  0  0  0  0  0  0
    3.9380   12.8810   -4.2360 C   0  0  0  0  0  0  0  0  0  0  0  0
    3.9510   10.2940   -7.6760 C   0  0  0  0  0  0  0  0  0  0  0  0
    3.4730   10.7930   -8.9430 C   0  0  0  0  0  0  0  0  0  0  0  0
    3.0010   12.1010   -9.0830 C   0  0  0  0  0  0  0  0  0  0  0  0
    2.9970   13.0070   -7.8040 C   0  0  0  0  0  0  0  0  0  0  0  0
    2.6770   12.5090   -9.9070 C   0  0  1  0  0  0  0  0  0  0  0  0
    2.9640   13.6660  -10.1970 C   0  0  2  0  0  0  0  0  0  0  0  0
    2.4240   14.7010   -9.1970 C   0  0  0  0  0  0  0  0  0  0  0  0
    2.4990   14.3810   -8.0290 C   0  0  0  0  0  0  0  0  0  0  0  0
    2.7820   11.8040  -11.1130 C   0  0  0  0  0  0  0  0  0  0  0  0
    2.4310   12.7180  -12.1660 C   0  0  0  0  0  0  0  0  0  0  0  0
    2.4480   13.8620  -11.6450 C   0  0  0  0  0  0  0  0  0  0  0  0
    4.4920   13.8770  -10.3840 C   0  0  0  0  0  0  0  0  0  0  0  0
    4.8690   11.1400   -2.8580 O   0  0  0  0  0  0  0  0  0  0  0  0
    2.1490   14.9240  -12.1790 O   0  0  0  0  0  0  0  0  0  0  0  0
    4.7845    9.6859   -5.1466 H   0  0  0  0  0  0  0  0  0  0  0  0
    3.1148   14.3800   -5.5521 H   0  0  0  0  0  0  0  0  0  0  0  0
    3.9357   13.5297   -3.3675 H   0  0  0  0  0  0  0  0  0  0  0  0
    4.3132    9.2752   -7.5995 H   0  0  0  0  0  0  0  0  0  0  0  0
    3.4802   10.1378   -9.8065 H   0  0  0  0  0  0  0  0  0  0  0  0
    1.5952   12.5479   -9.7118 H   0  0  0  0  0  0  0  0  0  0  0  0
    2.0038   15.6542   -9.5144 H   0  0  0  0  0  0  0  0  0  0  0  0
    2.2228   15.0495   -7.2149 H   0  0  0  0  0  0  0  0  0  0  0  0
    2.0922   10.9471  -11.1110 H   0  0  0  0  0  0  0  0  0  0  0  0
    3.8124   11.4450  -11.2523 H   0  0  0  0  0  0  0  0  0  0  0  0
    1.4276   12.4885  -12.5541 H   0  0  0  0  0  0  0  0  0  0  0  0
    3.1632   12.6589  -12.9847 H   0  0  0  0  0  0  0  0  0  0  0  0
    4.6881   14.9283  -10.6416 H   0  0  0  0  0  0  0  0  0  0  0  0
    4.8555   13.2272  -11.1936 H   0  0  0  0  0  0  0  0  0  0  0  0
    5.0141   13.6251   -9.4492 H   0  0  0  0  0  0  0  0  0  0  0  0
    5.1571   10.2364   -2.9115 H   0  0  0  0  0  0  0  0  0  0  0  0
  1  2  2  0  0  0  0
  1  6  1  0  0  0  0
  1 19  1  0  0  0  0
  2  3  1  0  0  0  0
  2 21  1  0  0  0  0
  3  4  2  0  0  0  0
  3  7  1  0  0  0  0
  4  5  1  0  0  0  0
  4 10  1  0  0  0  0
  5  6  2  0  0  0  0
  5 22  1  0  0  0  0
  6 23  1  0  0  0  0
  7  8  2  0  0  0  0
  7 24  1  0  0  0  0
  8  9  1  0  0  0  0
  8 25  1  0  0  0  0
  9 10  2  0  0  0  0
  9 11  1  0  0  0  0
 10 14  1  0  0  0  0
 11 12  1  0  0  0  0
 11 15  1  0  0  0  0
 11 26  1  1  0  0  0
 12 13  1  0  0  0  0
 12 17  1  0  0  0  0
 12 18  1  6  0  0  0
 13 14  2  0  0  0  0
 13 27  1  0  0  0  0
 14 28  1  0  0  0  0
 15 16  1  0  0  0  0
 15 29  1  0  0  0  0
 15 30  1  0  0  0  0
 16 17  1  0  0  0  0
 16 31  1  0  0  0  0
 16 32  1  0  0  0  0
 17 20  2  0  0  0  0
 18 33  1  0  0  0  0
 18 34  1  0  0  0  0
 18 35  1  0  0  0  0
 19 36  1  0  0  0  0
M  END
