5ai4_ligand
 OpenBabel08222323353D

 23 23  0  0  0  0  0  0  0  0999 V2000
   14.0940   13.7040   18.6140 C   0  0  0  0  0  0  0  0  0  0  0  0
   13.9870   12.2560   18.5730 N   0  0  0  0  0  0  0  0  0  0  0  0
   15.3390   11.9020   18.3180 C   0  0  0  0  0  0  0  0  0  0  0  0
   15.2240   11.0350   17.2420 C   0  0  0  0  0  0  0  0  0  0  0  0
   16.5510   10.7380   17.0180 O   0  0  0  0  0  0  0  0  0  0  0  0
   13.6670   11.6810   19.8430 C   0  0  0  0  0  0  0  0  0  0  0  0
   13.1310   12.4890   20.9590 C   0  0  0  0  0  0  0  0  0  0  0  0
   12.8660   11.8610   22.2100 C   0  0  0  0  0  0  0  0  0  0  0  0
   13.1170   10.4780   22.3130 C   0  0  0  0  0  0  0  0  0  0  0  0
   13.6110    9.7240   21.2260 C   0  0  0  0  0  0  0  0  0  0  0  0
   13.8770   10.2900   20.0120 N   0  0  0  0  0  0  0  0  0  0  0  0
   12.7780    9.5410   23.8860 Br  0  0  0  0  0  0  0  0  0  0  0  0
   14.3407   14.0820   17.6109 H   0  0  0  0  0  0  0  0  0  0  0  0
   14.8865   13.9933   19.3199 H   0  0  0  0  0  0  0  0  0  0  0  0
   13.1359   14.1333   18.9422 H   0  0  0  0  0  0  0  0  0  0  0  0
   15.7892   11.3997   19.1869 H   0  0  0  0  0  0  0  0  0  0  0  0
   15.9384   12.7858   18.0541 H   0  0  0  0  0  0  0  0  0  0  0  0
   14.7650   11.5263   16.3714 H   0  0  0  0  0  0  0  0  0  0  0  0
   14.6452   10.1370   17.5037 H   0  0  0  0  0  0  0  0  0  0  0  0
   16.6205   10.1358   16.2865 H   0  0  0  0  0  0  0  0  0  0  0  0
   12.9416   13.5481   20.8268 H   0  0  0  0  0  0  0  0  0  0  0  0
   12.4849   12.4267   23.0525 H   0  0  0  0  0  0  0  0  0  0  0  0
   13.7846    8.6623   21.3595 H   0  0  0  0  0  0  0  0  0  0  0  0
  1  2  1  0  0  0  0
  1 13  1  0  0  0  0
  1 14  1  0  0  0  0
  1 15  1  0  0  0  0
  2  3  1  0  0  0  0
  2  6  1  0  0  0  0
  3  4  1  0  0  0  0
  3 16  1  0  0  0  0
  3 17  1  0  0  0  0
  4  5  1  0  0  0  0
  4 18  1  0  0  0  0
  4 19  1  0  0  0  0
  5 20  1  0  0  0  0
  6  7  2  0  0  0  0
  6 11  1  0  0  0  0
  7  8  1  0  0  0  0
  7 21  1  0  0  0  0
  8  9  2  0  0  0  0
  8 22  1  0  0  0  0
  9 10  1  0  0  0  0
  9 12  1  0  0  0  0
 10 11  2  0  0  0  0
 10 23  1  0  0  0  0
M  END
