5ai5_ligand
 OpenBabel08222323353D

 40 41  0  0  0  0  0  0  0  0999 V2000
  -17.0290  -11.2950   14.8250 N   0  0  0  0  0  0  0  0  0  0  0  0
  -16.6920  -11.0570   16.1150 C   0  0  0  0  0  0  0  0  0  0  0  0
  -15.7930  -11.8840   16.6980 N   0  0  0  0  0  0  0  0  0  0  0  0
  -17.1760  -10.1220   16.7300 O   0  0  0  0  0  0  0  0  0  0  0  0
  -17.9680  -10.4600   14.0620 C   0  0  0  0  0  0  0  0  0  0  0  0
  -17.1840   -9.5330   13.1110 C   0  0  0  0  0  0  0  0  0  0  0  0
  -18.0030   -9.0880   11.8780 C   0  0  0  0  0  0  0  0  0  0  0  0
  -19.5420   -9.1310   12.0870 C   0  0  0  0  0  0  0  0  0  0  0  0
  -20.0670  -10.4760   12.6530 C   0  0  0  0  0  0  0  0  0  0  0  0
  -18.9430  -11.3310   13.2600 C   0  0  0  0  0  0  0  0  0  0  0  0
  -15.3400  -11.7390   18.0890 C   0  0  0  0  0  0  0  0  0  0  0  0
  -14.8260  -13.0920   18.6210 C   0  0  0  0  0  0  0  0  0  0  0  0
  -14.4470  -12.9450   20.1070 C   0  0  0  0  0  0  0  0  0  0  0  0
  -13.3830  -11.8520   20.3030 C   0  0  0  0  0  0  0  0  0  0  0  0
  -13.7760  -10.5050   19.6510 C   0  0  0  0  0  0  0  0  0  0  0  0
  -14.2300  -10.6730   18.1860 C   0  0  0  0  0  0  0  0  0  0  0  0
  -16.6164  -12.0820   14.3663 H   0  0  0  0  0  0  0  0  0  0  0  0
  -15.4169  -12.6337   16.1534 H   0  0  0  0  0  0  0  0  0  0  0  0
  -18.5448   -9.8425   14.7663 H   0  0  0  0  0  0  0  0  0  0  0  0
  -16.2890  -10.0682   12.7610 H   0  0  0  0  0  0  0  0  0  0  0  0
  -16.8796   -8.6360   13.6701 H   0  0  0  0  0  0  0  0  0  0  0  0
  -17.7502   -9.7517   11.0380 H   0  0  0  0  0  0  0  0  0  0  0  0
  -17.7174   -8.0555   11.6284 H   0  0  0  0  0  0  0  0  0  0  0  0
  -20.0275   -8.9517   11.1164 H   0  0  0  0  0  0  0  0  0  0  0  0
  -19.8178   -8.3299   12.7885 H   0  0  0  0  0  0  0  0  0  0  0  0
  -20.5412  -11.0421   11.8377 H   0  0  0  0  0  0  0  0  0  0  0  0
  -20.8119  -10.2645   13.4342 H   0  0  0  0  0  0  0  0  0  0  0  0
  -19.3846  -12.0859   13.9271 H   0  0  0  0  0  0  0  0  0  0  0  0
  -18.3947  -11.8336   12.4496 H   0  0  0  0  0  0  0  0  0  0  0  0
  -16.1921  -11.4171   18.7057 H   0  0  0  0  0  0  0  0  0  0  0  0
  -13.9412  -13.4009   18.0451 H   0  0  0  0  0  0  0  0  0  0  0  0
  -15.6149  -13.8514   18.5166 H   0  0  0  0  0  0  0  0  0  0  0  0
  -14.0489  -13.9031   20.4725 H   0  0  0  0  0  0  0  0  0  0  0  0
  -15.3459  -12.6781   20.6821 H   0  0  0  0  0  0  0  0  0  0  0  0
  -12.4393  -12.1965   19.8551 H   0  0  0  0  0  0  0  0  0  0  0  0
  -13.2397  -11.6911   21.3817 H   0  0  0  0  0  0  0  0  0  0  0  0
  -12.9058   -9.8326   19.6766 H   0  0  0  0  0  0  0  0  0  0  0  0
  -14.6003  -10.0601   20.2278 H   0  0  0  0  0  0  0  0  0  0  0  0
  -14.6155   -9.7126   17.8131 H   0  0  0  0  0  0  0  0  0  0  0  0
  -13.3715  -10.9861   17.5737 H   0  0  0  0  0  0  0  0  0  0  0  0
  1  2  1  0  0  0  0
  1  5  1  0  0  0  0
  1 17  1  0  0  0  0
  2  3  1  0  0  0  0
  2  4  2  0  0  0  0
  3 11  1  0  0  0  0
  3 18  1  0  0  0  0
  5  6  1  0  0  0  0
  5 10  1  0  0  0  0
  5 19  1  0  0  0  0
  6  7  1  0  0  0  0
  6 20  1  0  0  0  0
  6 21  1  0  0  0  0
  7  8  1  0  0  0  0
  7 22  1  0  0  0  0
  7 23  1  0  0  0  0
  8  9  1  0  0  0  0
  8 24  1  0  0  0  0
  8 25  1  0  0  0  0
  9 10  1  0  0  0  0
  9 26  1  0  0  0  0
  9 27  1  0  0  0  0
 10 28  1  0  0  0  0
 10 29  1  0  0  0  0
 11 12  1  0  0  0  0
 11 16  1  0  0  0  0
 11 30  1  0  0  0  0
 12 13  1  0  0  0  0
 12 31  1  0  0  0  0
 12 32  1  0  0  0  0
 13 14  1  0  0  0  0
 13 33  1  0  0  0  0
 13 34  1  0  0  0  0
 14 15  1  0  0  0  0
 14 35  1  0  0  0  0
 14 36  1  0  0  0  0
 15 16  1  0  0  0  0
 15 37  1  0  0  0  0
 15 38  1  0  0  0  0
 16 39  1  0  0  0  0
 16 40  1  0  0  0  0
M  END
