5ai9_ligand
 OpenBabel08222323353D

 50 51  0  0  0  0  0  0  0  0999 V2000
   19.8400   10.5980   12.2520 C   0  0  0  0  0  0  0  0  0  0  0  0
   19.0330    9.3340   12.0970 C   0  0  0  0  0  0  0  0  0  0  0  0
   19.4570    8.3800   13.1780 C   0  0  0  0  0  0  0  0  0  0  0  0
   19.5010    8.6850   10.8020 C   0  0  0  0  0  0  0  0  0  0  0  0
   17.5410    9.6430   12.1040 C   0  0  0  0  0  0  0  0  0  0  0  0
   16.9040   10.1200   13.2470 C   0  0  0  0  0  0  0  0  0  0  0  0
   15.5600   10.4670   13.2840 C   0  0  0  0  0  0  0  0  0  0  0  0
   14.8180   10.3080   12.1230 C   0  0  0  0  0  0  0  0  0  0  0  0
   15.4000    9.8000   10.9810 C   0  0  0  0  0  0  0  0  0  0  0  0
   16.7500    9.4960   10.9680 C   0  0  0  0  0  0  0  0  0  0  0  0
   14.3230    9.5550    9.4130 Br  0  0  0  0  0  0  0  0  0  0  0  0
   13.4640   10.6260   12.0960 O   0  0  0  0  0  0  0  0  0  0  0  0
   14.8960   10.9670   14.5430 C   0  0  0  0  0  0  0  0  0  0  0  0
   15.7320   11.0470   15.7380 N   0  3  0  0  0  0  0  0  0  0  0  0
   14.8890   11.4500   16.8820 C   0  0  0  0  0  0  0  0  0  0  0  0
   15.7180   11.9160   18.0880 C   0  0  0  0  0  0  0  0  0  0  0  0
   14.9200   12.8000   19.0520 C   0  0  0  0  0  0  0  0  0  0  0  0
   13.7640   12.0110   19.5670 C   0  0  0  0  0  0  0  0  0  0  0  0
   13.9890   11.0040   20.5000 C   0  0  0  0  0  0  0  0  0  0  0  0
   12.9060   10.2610   20.9510 C   0  0  0  0  0  0  0  0  0  0  0  0
   11.6190   10.4940   20.5030 C   0  0  0  0  0  0  0  0  0  0  0  0
   11.4240   11.5050   19.5760 C   0  0  0  0  0  0  0  0  0  0  0  0
   12.4800   12.2690   19.0950 C   0  0  0  0  0  0  0  0  0  0  0  0
   20.9121   10.3518   12.2443 H   0  0  0  0  0  0  0  0  0  0  0  0
   19.5821   11.0832   13.2049 H   0  0  0  0  0  0  0  0  0  0  0  0
   19.6147   11.2812   11.4199 H   0  0  0  0  0  0  0  0  0  0  0  0
   18.8826    7.4461   13.0888 H   0  0  0  0  0  0  0  0  0  0  0  0
   19.2686    8.8338   14.1622 H   0  0  0  0  0  0  0  0  0  0  0  0
   20.5301    8.1617   13.0743 H   0  0  0  0  0  0  0  0  0  0  0  0
   19.2272    9.3259    9.9509 H   0  0  0  0  0  0  0  0  0  0  0  0
   19.0206    7.7018   10.6901 H   0  0  0  0  0  0  0  0  0  0  0  0
   20.5933    8.5584   10.8292 H   0  0  0  0  0  0  0  0  0  0  0  0
   17.4875   10.2258   14.1544 H   0  0  0  0  0  0  0  0  0  0  0  0
   17.2023    9.1348   10.0514 H   0  0  0  0  0  0  0  0  0  0  0  0
   13.3080   11.2859   11.4306 H   0  0  0  0  0  0  0  0  0  0  0  0
   14.0569   10.2923   14.7679 H   0  0  0  0  0  0  0  0  0  0  0  0
   14.5101   11.9765   14.3380 H   0  0  0  0  0  0  0  0  0  0  0  0
   16.4604   11.7293   15.5969 H   0  0  0  0  0  0  0  0  0  0  0  0
   16.1461   10.1468   15.9228 H   0  0  0  0  0  0  0  0  0  0  0  0
   14.2744   10.5904   17.1874 H   0  0  0  0  0  0  0  0  0  0  0  0
   14.2340   12.2747   16.5644 H   0  0  0  0  0  0  0  0  0  0  0  0
   16.5822   12.4885   17.7201 H   0  0  0  0  0  0  0  0  0  0  0  0
   16.0713   11.0295   18.6351 H   0  0  0  0  0  0  0  0  0  0  0  0
   14.5543   13.6918   18.5220 H   0  0  0  0  0  0  0  0  0  0  0  0
   15.5617   13.1090   19.8903 H   0  0  0  0  0  0  0  0  0  0  0  0
   14.9890   10.8035   20.8673 H   0  0  0  0  0  0  0  0  0  0  0  0
   13.0749    9.4738   21.6769 H   0  0  0  0  0  0  0  0  0  0  0  0
   10.7864    9.9027   20.8666 H   0  0  0  0  0  0  0  0  0  0  0  0
   10.4211   11.7052   19.2165 H   0  0  0  0  0  0  0  0  0  0  0  0
   12.3072   13.0518   18.3654 H   0  0  0  0  0  0  0  0  0  0  0  0
  1  2  1  0  0  0  0
  1 24  1  0  0  0  0
  1 25  1  0  0  0  0
  1 26  1  0  0  0  0
  2  3  1  0  0  0  0
  2  4  1  0  0  0  0
  2  5  1  0  0  0  0
  3 27  1  0  0  0  0
  3 28  1  0  0  0  0
  3 29  1  0  0  0  0
  4 30  1  0  0  0  0
  4 31  1  0  0  0  0
  4 32  1  0  0  0  0
  5  6  2  0  0  0  0
  5 10  1  0  0  0  0
  6  7  1  0  0  0  0
  6 33  1  0  0  0  0
  7  8  2  0  0  0  0
  7 13  1  0  0  0  0
  8  9  1  0  0  0  0
  8 12  1  0  0  0  0
  9 10  2  0  0  0  0
  9 11  1  0  0  0  0
 10 34  1  0  0  0  0
 12 35  1  0  0  0  0
 13 14  1  0  0  0  0
 13 36  1  0  0  0  0
 13 37  1  0  0  0  0
 14 15  1  0  0  0  0
 14 38  1  0  0  0  0
 14 39  1  0  0  0  0
 15 16  1  0  0  0  0
 15 40  1  0  0  0  0
 15 41  1  0  0  0  0
 16 17  1  0  0  0  0
 16 42  1  0  0  0  0
 16 43  1  0  0  0  0
 17 18  1  0  0  0  0
 17 44  1  0  0  0  0
 17 45  1  0  0  0  0
 18 19  2  0  0  0  0
 18 23  1  0  0  0  0
 19 20  1  0  0  0  0
 19 46  1  0  0  0  0
 20 21  2  0  0  0  0
 20 47  1  0  0  0  0
 21 22  1  0  0  0  0
 21 48  1  0  0  0  0
 22 23  2  0  0  0  0
 22 49  1  0  0  0  0
 23 50  1  0  0  0  0
M  CHG  1  14   1
M  END
