5aia_ligand
 OpenBabel08222323353D

 31 32  0  0  0  0  0  0  0  0999 V2000
  -15.6000   -9.4010   10.7420 C   0  0  0  0  0  0  0  0  0  0  0  0
  -14.4060   -9.4090   10.0510 C   0  0  0  0  0  0  0  0  0  0  0  0
  -14.4290   -9.5810    8.6920 C   0  0  0  0  0  0  0  0  0  0  0  0
  -15.6160   -9.7620    8.0100 C   0  0  0  0  0  0  0  0  0  0  0  0
  -16.8050   -9.7620    8.7180 C   0  0  0  0  0  0  0  0  0  0  0  0
  -16.8110   -9.5750   10.0870 C   0  0  0  0  0  0  0  0  0  0  0  0
  -18.1180   -9.5890   10.8320 C   0  0  0  0  0  0  0  0  0  0  0  0
  -18.1600  -10.7430   11.8330 C   0  0  0  0  0  0  0  0  0  0  0  0
  -18.5430  -10.3200   13.2390 C   0  0  0  0  0  0  0  0  0  0  0  0
  -19.7790   -9.4340   13.2630 C   0  0  0  0  0  0  0  0  0  0  0  0
  -19.6730   -8.2310   12.3350 C   0  0  0  0  0  0  0  0  0  0  0  0
  -18.4310   -8.2350   11.4640 C   0  0  0  0  0  0  0  0  0  0  0  0
  -15.6070   -9.9510    6.5420 C   0  0  0  0  0  0  0  0  0  0  0  0
  -14.7580  -10.7730    6.0950 O   0  5  0  0  0  0  0  0  0  0  0  0
  -16.4240   -9.2600    5.8640 O   0  0  0  0  0  0  0  0  0  0  0  0
  -13.2300   -9.5800    8.0250 O   0  0  0  0  0  0  0  0  0  0  0  0
  -15.5921   -9.2561   11.8163 H   0  0  0  0  0  0  0  0  0  0  0  0
  -13.4654   -9.2813   10.5745 H   0  0  0  0  0  0  0  0  0  0  0  0
  -17.7417   -9.9103    8.1930 H   0  0  0  0  0  0  0  0  0  0  0  0
  -18.9090   -9.7805   10.0920 H   0  0  0  0  0  0  0  0  0  0  0  0
  -17.1632  -11.2068   11.8698 H   0  0  0  0  0  0  0  0  0  0  0  0
  -18.8952  -11.4814   11.4806 H   0  0  0  0  0  0  0  0  0  0  0  0
  -17.7026   -9.7655   13.6821 H   0  0  0  0  0  0  0  0  0  0  0  0
  -18.7433  -11.2215   13.8366 H   0  0  0  0  0  0  0  0  0  0  0  0
  -19.9289   -9.0708   14.2904 H   0  0  0  0  0  0  0  0  0  0  0  0
  -20.6469  -10.0363   12.9567 H   0  0  0  0  0  0  0  0  0  0  0  0
  -19.6620   -7.3190   12.9499 H   0  0  0  0  0  0  0  0  0  0  0  0
  -20.5560   -8.2204   11.6792 H   0  0  0  0  0  0  0  0  0  0  0  0
  -18.5727   -7.5013   10.6568 H   0  0  0  0  0  0  0  0  0  0  0  0
  -17.5730   -7.9366   12.0843 H   0  0  0  0  0  0  0  0  0  0  0  0
  -13.1116  -10.4149    7.5875 H   0  0  0  0  0  0  0  0  0  0  0  0
  1  2  2  0  0  0  0
  1  6  1  0  0  0  0
  1 17  1  0  0  0  0
  2  3  1  0  0  0  0
  2 18  1  0  0  0  0
  3  4  2  0  0  0  0
  3 16  1  0  0  0  0
  4  5  1  0  0  0  0
  4 13  1  0  0  0  0
  5  6  2  0  0  0  0
  5 19  1  0  0  0  0
  6  7  1  0  0  0  0
  7  8  1  0  0  0  0
  7 12  1  0  0  0  0
  7 20  1  0  0  0  0
  8  9  1  0  0  0  0
  8 21  1  0  0  0  0
  8 22  1  0  0  0  0
  9 10  1  0  0  0  0
  9 23  1  0  0  0  0
  9 24  1  0  0  0  0
 10 11  1  0  0  0  0
 10 25  1  0  0  0  0
 10 26  1  0  0  0  0
 11 12  1  0  0  0  0
 11 27  1  0  0  0  0
 11 28  1  0  0  0  0
 12 29  1  0  0  0  0
 12 30  1  0  0  0  0
 13 14  1  0  0  0  0
 13 15  2  0  0  0  0
 16 31  1  0  0  0  0
M  CHG  1  14  -1
M  END
