5ajv_ligand
 OpenBabel08222323353D

 44 46  0  0  1  0  0  0  0  0999 V2000
   42.4090  -38.9230   13.1090 C   0  0  0  0  0  0  0  0  0  0  0  0
   41.9540  -40.0670   12.5760 C   0  0  0  0  0  0  0  0  0  0  0  0
   42.5430  -41.2190   12.2310 C   0  0  0  0  0  0  0  0  0  0  0  0
   43.9090  -41.5440   12.3670 C   0  0  0  0  0  0  0  0  0  0  0  0
   45.0700  -41.8750   12.4710 N   0  0  0  0  0  0  0  0  0  0  0  0
   41.6500  -42.0410   11.7240 C   0  0  0  0  0  0  0  0  0  0  0  0
   41.8410  -43.2690   11.2720 N   0  0  0  0  0  0  0  0  0  0  0  0
   40.4660  -41.4230   11.7300 N   0  0  0  0  0  0  0  0  0  0  0  0
   40.6530  -40.1950   12.2620 C   0  0  0  0  0  0  0  0  0  0  0  0
   39.7890  -39.1830   12.4940 C   0  0  0  0  0  0  0  0  0  0  0  0
   40.2030  -37.9820   13.0510 C   0  0  0  0  0  0  0  0  0  0  0  0
   41.5470  -37.8550   13.3630 C   0  0  0  0  0  0  0  0  0  0  0  0
   42.0230  -36.7090   13.9150 O   0  0  0  0  0  0  0  0  0  0  0  0
   41.5300  -36.3620   15.1360 C   0  0  0  0  0  0  0  0  0  0  0  0
   41.0460  -37.2600   16.0840 C   0  0  0  0  0  0  0  0  0  0  0  0
   40.5650  -36.8190   17.3210 C   0  0  0  0  0  0  0  0  0  0  0  0
   41.5400  -35.0300   15.4560 C   0  0  0  0  0  0  0  0  0  0  0  0
   41.0750  -34.5930   16.6880 C   0  0  0  0  0  0  0  0  0  0  0  0
   40.5630  -35.4630   17.6480 C   0  0  0  0  0  0  0  0  0  0  0  0
   40.1530  -34.8950   18.8030 N   0  0  0  0  0  0  0  0  0  0  0  0
   40.1010  -35.5650   19.9760 C   0  0  0  0  0  0  0  0  0  0  0  0
   40.3730  -36.7550   20.1390 O   0  0  0  0  0  0  0  0  0  0  0  0
   39.7750  -34.7150   21.2130 C   0  0  1  0  0  0  0  0  0  0  0  0
   38.6520  -35.2900   22.0070 N   0  3  0  0  0  0  0  0  0  0  0  0
   41.1010  -34.6880   21.9680 C   0  0  0  0  0  0  0  0  0  0  0  0
   41.1200  -33.4180   22.6010 O   0  0  0  0  0  0  0  0  0  0  0  0
   43.4624  -38.8266   13.3461 H   0  0  0  0  0  0  0  0  0  0  0  0
   41.0479  -43.8091   10.8975 H   0  0  0  0  0  0  0  0  0  0  0  0
   42.7828  -43.6854   11.2944 H   0  0  0  0  0  0  0  0  0  0  0  0
   39.5741  -41.8112   11.3913 H   0  0  0  0  0  0  0  0  0  0  0  0
   38.7437  -39.3129   12.2380 H   0  0  0  0  0  0  0  0  0  0  0  0
   39.5030  -37.1750   13.2349 H   0  0  0  0  0  0  0  0  0  0  0  0
   41.0420  -38.3204   15.8590 H   0  0  0  0  0  0  0  0  0  0  0  0
   40.1883  -37.5414   18.0360 H   0  0  0  0  0  0  0  0  0  0  0  0
   41.9154  -34.3093   14.7386 H   0  0  0  0  0  0  0  0  0  0  0  0
   41.1115  -33.5331   16.9123 H   0  0  0  0  0  0  0  0  0  0  0  0
   39.8751  -33.9345   18.7897 H   0  0  0  0  0  0  0  0  0  0  0  0
   39.4946  -33.6952   20.9108 H   0  0  0  0  0  0  0  0  0  0  0  0
   38.4712  -34.7037   22.8067 H   0  0  0  0  0  0  0  0  0  0  0  0
   38.9003  -36.2159   22.3185 H   0  0  0  0  0  0  0  0  0  0  0  0
   37.8251  -35.3392   21.4327 H   0  0  0  0  0  0  0  0  0  0  0  0
   41.9472  -34.7891   21.2725 H   0  0  0  0  0  0  0  0  0  0  0  0
   41.1409  -35.4954   22.7139 H   0  0  0  0  0  0  0  0  0  0  0  0
   41.0722  -32.7360   21.9415 H   0  0  0  0  0  0  0  0  0  0  0  0
  1  2  2  0  0  0  0
  1 12  1  0  0  0  0
  1 27  1  0  0  0  0
  2  3  1  0  0  0  0
  2  9  1  0  0  0  0
  3  4  1  0  0  0  0
  3  6  2  0  0  0  0
  4  5  3  0  0  0  0
  6  7  1  0  0  0  0
  6  8  1  0  0  0  0
  7 28  1  0  0  0  0
  7 29  1  0  0  0  0
  8  9  1  0  0  0  0
  8 30  1  0  0  0  0
  9 10  2  0  0  0  0
 10 11  1  0  0  0  0
 10 31  1  0  0  0  0
 11 12  2  0  0  0  0
 11 32  1  0  0  0  0
 12 13  1  0  0  0  0
 13 14  1  0  0  0  0
 14 15  2  0  0  0  0
 14 17  1  0  0  0  0
 15 16  1  0  0  0  0
 15 33  1  0  0  0  0
 16 19  2  0  0  0  0
 16 34  1  0  0  0  0
 17 18  2  0  0  0  0
 17 35  1  0  0  0  0
 18 19  1  0  0  0  0
 18 36  1  0  0  0  0
 19 20  1  0  0  0  0
 20 21  1  0  0  0  0
 20 37  1  0  0  0  0
 21 22  2  0  0  0  0
 21 23  1  0  0  0  0
 23 24  1  0  0  0  0
 23 25  1  0  0  0  0
 23 38  1  6  0  0  0
 24 39  1  0  0  0  0
 24 40  1  0  0  0  0
 24 41  1  0  0  0  0
 25 26  1  0  0  0  0
 25 42  1  0  0  0  0
 25 43  1  0  0  0  0
 26 44  1  0  0  0  0
M  CHG  1  24   1
M  END
