5ak3_ligand
 OpenBabel08222323353D

 22 23  0  0  0  0  0  0  0  0999 V2000
  -13.8210  -13.9230   26.9620 C   0  0  0  0  0  0  0  0  0  0  0  0
  -13.0560  -14.6210   27.9840 C   0  0  0  0  0  0  0  0  0  0  0  0
  -11.9430  -13.8950   28.6260 C   0  0  0  0  0  0  0  0  0  0  0  0
  -11.5820  -12.5070   28.2490 C   0  0  0  0  0  0  0  0  0  0  0  0
  -12.3610  -11.8390   27.2230 C   0  0  0  0  0  0  0  0  0  0  0  0
  -13.5090  -12.5350   26.5480 C   0  0  0  0  0  0  0  0  0  0  0  0
  -11.8030  -10.4470   27.0280 C   0  0  0  0  0  0  0  0  0  0  0  0
  -10.5860  -10.3240   27.9860 C   0  0  0  0  0  0  0  0  0  0  0  0
  -10.4680  -11.6080   28.7930 C   0  0  0  0  0  0  0  0  0  0  0  0
   -9.3600  -10.2620   27.2300 N   0  3  0  0  0  0  0  0  0  0  0  0
  -14.6487  -14.4367   26.4865 H   0  0  0  0  0  0  0  0  0  0  0  0
  -13.2956  -15.6403   28.2645 H   0  0  0  0  0  0  0  0  0  0  0  0
  -11.3699  -14.3933   29.3995 H   0  0  0  0  0  0  0  0  0  0  0  0
  -14.0913  -12.0367   25.7814 H   0  0  0  0  0  0  0  0  0  0  0  0
  -12.5635   -9.6934   27.2805 H   0  0  0  0  0  0  0  0  0  0  0  0
  -11.4817  -10.3086   25.9851 H   0  0  0  0  0  0  0  0  0  0  0  0
  -10.6979   -9.4450   28.6378 H   0  0  0  0  0  0  0  0  0  0  0  0
   -9.4832  -12.0738   28.6405 H   0  0  0  0  0  0  0  0  0  0  0  0
  -10.6175  -11.4088   29.8644 H   0  0  0  0  0  0  0  0  0  0  0  0
   -9.3578   -9.4298   26.6612 H   0  0  0  0  0  0  0  0  0  0  0  0
   -9.2892  -11.0743   26.6373 H   0  0  0  0  0  0  0  0  0  0  0  0
   -8.5758  -10.2384   27.8629 H   0  0  0  0  0  0  0  0  0  0  0  0
  1  2  2  0  0  0  0
  1  6  1  0  0  0  0
  1 11  1  0  0  0  0
  2  3  1  0  0  0  0
  2 12  1  0  0  0  0
  3  4  2  0  0  0  0
  3 13  1  0  0  0  0
  4  5  1  0  0  0  0
  4  9  1  0  0  0  0
  5  6  2  0  0  0  0
  5  7  1  0  0  0  0
  6 14  1  0  0  0  0
  7  8  1  0  0  0  0
  7 15  1  0  0  0  0
  7 16  1  0  0  0  0
  8  9  1  0  0  0  0
  8 10  1  0  0  0  0
  8 17  1  0  0  0  0
  9 18  1  0  0  0  0
  9 19  1  0  0  0  0
 10 20  1  0  0  0  0
 10 21  1  0  0  0  0
 10 22  1  0  0  0  0
M  CHG  1  10   1
M  END
