5ak5_ligand
 OpenBabel08222323353D

 29 30  0  0  0  0  0  0  0  0999 V2000
  -16.3420   -9.3540    8.9110 N   0  0  0  0  0  0  0  0  0  0  0  0
  -15.3560   -9.2400    8.0630 C   0  0  0  0  0  0  0  0  0  0  0  0
  -13.9030   -9.3340    8.4700 C   0  0  0  0  0  0  0  0  0  0  0  0
  -14.5930   -6.9690    5.5570 C   0  0  0  0  0  0  0  0  0  0  0  0
  -15.7300   -7.4870    6.4150 C   0  0  0  0  0  0  0  0  0  0  0  0
  -15.6320   -8.9880    6.6160 C   0  0  0  0  0  0  0  0  0  0  0  0
  -16.0380   -9.5740   10.2390 C   0  0  0  0  0  0  0  0  0  0  0  0
  -14.7800   -9.6770   10.6750 C   0  0  0  0  0  0  0  0  0  0  0  0
  -17.1050   -9.7190   11.2320 C   0  0  0  0  0  0  0  0  0  0  0  0
  -18.3990   -9.3400   10.9390 C   0  0  0  0  0  0  0  0  0  0  0  0
  -16.8720  -10.2470   12.4910 C   0  0  0  0  0  0  0  0  0  0  0  0
  -17.7950  -10.4200   13.4490 N   0  0  0  0  0  0  0  0  0  0  0  0
  -19.0290  -10.0310   13.1210 C   0  0  0  0  0  0  0  0  0  0  0  0
  -19.3790   -9.4860   11.9020 C   0  0  0  0  0  0  0  0  0  0  0  0
  -13.0140   -9.2100    7.6330 O   0  0  0  0  0  0  0  0  0  0  0  0
  -13.7270   -9.5540    9.8110 N   0  0  0  0  0  0  0  0  0  0  0  0
  -14.6945   -5.8809    5.4318 H   0  0  0  0  0  0  0  0  0  0  0  0
  -14.6261   -7.4561    4.5713 H   0  0  0  0  0  0  0  0  0  0  0  0
  -13.6333   -7.1939    6.0452 H   0  0  0  0  0  0  0  0  0  0  0  0
  -16.6854   -7.2535    5.9224 H   0  0  0  0  0  0  0  0  0  0  0  0
  -15.6926   -6.9913    7.3962 H   0  0  0  0  0  0  0  0  0  0  0  0
  -16.5795   -9.4665    6.3272 H   0  0  0  0  0  0  0  0  0  0  0  0
  -14.8141   -9.3946    6.0030 H   0  0  0  0  0  0  0  0  0  0  0  0
  -14.5903   -9.8612   11.7314 H   0  0  0  0  0  0  0  0  0  0  0  0
  -18.6438   -8.9325    9.9648 H   0  0  0  0  0  0  0  0  0  0  0  0
  -15.8561  -10.5463   12.7222 H   0  0  0  0  0  0  0  0  0  0  0  0
  -19.8101  -10.1514   13.8630 H   0  0  0  0  0  0  0  0  0  0  0  0
  -20.3999   -9.1794   11.7047 H   0  0  0  0  0  0  0  0  0  0  0  0
  -12.7966   -9.6271   10.1702 H   0  0  0  0  0  0  0  0  0  0  0  0
  1  7  1  0  0  0  0
  2  1  2  0  0  0  0
  2  3  1  0  0  0  0
  3 15  2  0  0  0  0
  3 16  1  0  0  0  0
  4 17  1  0  0  0  0
  4 18  1  0  0  0  0
  4 19  1  0  0  0  0
  5  4  1  0  0  0  0
  5  6  1  0  0  0  0
  5 20  1  0  0  0  0
  5 21  1  0  0  0  0
  6  2  1  0  0  0  0
  6 22  1  0  0  0  0
  6 23  1  0  0  0  0
  7  8  2  0  0  0  0
  7  9  1  0  0  0  0
  8 16  1  0  0  0  0
  8 24  1  0  0  0  0
  9 10  2  0  0  0  0
  9 11  1  0  0  0  0
 10 14  1  0  0  0  0
 10 25  1  0  0  0  0
 11 12  2  0  0  0  0
 11 26  1  0  0  0  0
 12 13  1  0  0  0  0
 13 14  2  0  0  0  0
 13 27  1  0  0  0  0
 14 28  1  0  0  0  0
 16 29  1  0  0  0  0
M  END
