5akh_ligand
 OpenBabel08222323353D

 31 33  0  0  0  0  0  0  0  0999 V2000
  -18.7800  -10.9400   13.6130 C   0  0  0  0  0  0  0  0  0  0  0  0
  -17.6060  -11.0140   12.8930 C   0  0  0  0  0  0  0  0  0  0  0  0
  -19.6700   -9.9110   13.3970 C   0  0  0  0  0  0  0  0  0  0  0  0
  -17.9330   -9.8160    8.5430 C   0  0  0  0  0  0  0  0  0  0  0  0
  -16.2070   -8.3250    7.8650 C   0  0  0  0  0  0  0  0  0  0  0  0
  -18.1990   -9.0170   11.7510 C   0  0  0  0  0  0  0  0  0  0  0  0
  -18.6730   -9.3380    7.4810 C   0  0  0  0  0  0  0  0  0  0  0  0
  -17.0260   -7.9080    6.8360 C   0  0  0  0  0  0  0  0  0  0  0  0
  -14.4660   -9.9110    9.6570 C   0  0  0  0  0  0  0  0  0  0  0  0
  -17.3120  -10.0560   11.9410 C   0  0  0  0  0  0  0  0  0  0  0  0
  -16.6710   -9.2930    8.7400 C   0  0  0  0  0  0  0  0  0  0  0  0
  -15.8250   -9.7530    9.8230 C   0  0  0  0  0  0  0  0  0  0  0  0
  -19.3800   -8.9450   12.4590 C   0  0  0  0  0  0  0  0  0  0  0  0
  -16.0730  -10.0900   11.1840 C   0  0  0  0  0  0  0  0  0  0  0  0
  -20.2870   -7.7990   12.1890 C   0  0  0  0  0  0  0  0  0  0  0  0
  -18.2580   -8.3950    6.6210 N   0  0  0  0  0  0  0  0  0  0  0  0
  -14.9290  -10.4340   11.7990 N   0  0  0  0  0  0  0  0  0  0  0  0
  -13.9870  -10.3410   10.8570 N   0  0  0  0  0  0  0  0  0  0  0  0
  -21.5930   -8.0110   12.4920 F   0  0  0  0  0  0  0  0  0  0  0  0
  -19.9370   -6.6800   12.8720 F   0  0  0  0  0  0  0  0  0  0  0  0
  -20.2530   -7.4640   10.8750 F   0  0  0  0  0  0  0  0  0  0  0  0
  -19.0042  -11.6978   14.3550 H   0  0  0  0  0  0  0  0  0  0  0  0
  -16.9114  -11.8263   13.0743 H   0  0  0  0  0  0  0  0  0  0  0  0
  -20.5937   -9.8618   13.9622 H   0  0  0  0  0  0  0  0  0  0  0  0
  -18.3307  -10.5789    9.2024 H   0  0  0  0  0  0  0  0  0  0  0  0
  -15.2164   -7.9018    7.9866 H   0  0  0  0  0  0  0  0  0  0  0  0
  -17.9630   -8.2418   11.0309 H   0  0  0  0  0  0  0  0  0  0  0  0
  -19.6623   -9.7548    7.3303 H   0  0  0  0  0  0  0  0  0  0  0  0
  -16.6534   -7.1440    6.1633 H   0  0  0  0  0  0  0  0  0  0  0  0
  -13.8916   -9.7289    8.7499 H   0  0  0  0  0  0  0  0  0  0  0  0
  -14.8054  -10.7097   12.7837 H   0  0  0  0  0  0  0  0  0  0  0  0
  1  3  1  0  0  0  0
  1 22  1  0  0  0  0
  2  1  2  0  0  0  0
  2 23  1  0  0  0  0
  3 24  1  0  0  0  0
  4  7  2  0  0  0  0
  4 25  1  0  0  0  0
  5  8  1  0  0  0  0
  5 26  1  0  0  0  0
  6 13  1  0  0  0  0
  6 27  1  0  0  0  0
  7 16  1  0  0  0  0
  7 28  1  0  0  0  0
  8 16  2  0  0  0  0
  8 29  1  0  0  0  0
  9 18  2  0  0  0  0
  9 30  1  0  0  0  0
 10  2  1  0  0  0  0
 10  6  2  0  0  0  0
 11  4  1  0  0  0  0
 11  5  2  0  0  0  0
 12  9  1  0  0  0  0
 12 11  1  0  0  0  0
 12 14  2  0  0  0  0
 13  3  2  0  0  0  0
 13 15  1  0  0  0  0
 14 10  1  0  0  0  0
 14 17  1  0  0  0  0
 15 19  1  0  0  0  0
 15 20  1  0  0  0  0
 15 21  1  0  0  0  0
 17 18  1  0  0  0  0
 17 31  1  0  0  0  0
M  END
