5akj_ligand
 OpenBabel08222323353D

 23 24  0  0  0  0  0  0  0  0999 V2000
   19.6820   10.3050   12.3430 C   0  0  0  0  0  0  0  0  0  0  0  0
   19.5540    8.8900   12.6360 C   0  0  0  0  0  0  0  0  0  0  0  0
   18.5640    8.3970   13.5790 C   0  0  0  0  0  0  0  0  0  0  0  0
   17.7530    9.4050   14.2260 C   0  0  0  0  0  0  0  0  0  0  0  0
   17.8670   10.7910   13.9520 C   0  0  0  0  0  0  0  0  0  0  0  0
   18.8090   11.2930   12.9960 C   0  0  0  0  0  0  0  0  0  0  0  0
   16.8960   11.4190   14.7910 N   0  0  0  0  0  0  0  0  0  0  0  0
   16.2820   10.4410   15.5120 C   0  0  0  0  0  0  0  0  0  0  0  0
   16.7820    9.2380   15.1640 N   0  0  0  0  0  0  0  0  0  0  0  0
   15.0480   10.6480   16.6600 S   0  0  0  0  0  0  0  0  0  0  0  0
   15.7030   11.8740   17.9700 C   0  0  0  0  0  0  0  0  0  0  0  0
   14.6240   13.0010   18.4150 C   0  0  0  0  0  0  0  0  0  0  0  0
   13.7030   12.2540   19.3070 O   0  0  0  0  0  0  0  0  0  0  0  0
   20.4307   10.6388   11.6337 H   0  0  0  0  0  0  0  0  0  0  0  0
   20.2114    8.1847   12.1406 H   0  0  0  0  0  0  0  0  0  0  0  0
   18.4410    7.3398   13.7846 H   0  0  0  0  0  0  0  0  0  0  0  0
   18.8752   12.3500   12.7650 H   0  0  0  0  0  0  0  0  0  0  0  0
   16.6967   12.4283   14.8412 H   0  0  0  0  0  0  0  0  0  0  0  0
   16.5854   12.3840   17.5562 H   0  0  0  0  0  0  0  0  0  0  0  0
   15.9951   11.3026   18.8634 H   0  0  0  0  0  0  0  0  0  0  0  0
   14.0888   13.4015   17.5415 H   0  0  0  0  0  0  0  0  0  0  0  0
   15.1138   13.8250   18.9545 H   0  0  0  0  0  0  0  0  0  0  0  0
   14.1909   11.9057   20.0439 H   0  0  0  0  0  0  0  0  0  0  0  0
  1  2  2  0  0  0  0
  1  6  1  0  0  0  0
  1 14  1  0  0  0  0
  2  3  1  0  0  0  0
  2 15  1  0  0  0  0
  3  4  2  0  0  0  0
  3 16  1  0  0  0  0
  4  5  1  0  0  0  0
  4  9  1  0  0  0  0
  5  6  2  0  0  0  0
  5  7  1  0  0  0  0
  6 17  1  0  0  0  0
  7  8  1  0  0  0  0
  7 18  1  0  0  0  0
  8  9  2  0  0  0  0
  8 10  1  0  0  0  0
 10 11  1  0  0  0  0
 11 12  1  0  0  0  0
 11 19  1  0  0  0  0
 11 20  1  0  0  0  0
 12 13  1  0  0  0  0
 12 21  1  0  0  0  0
 12 22  1  0  0  0  0
 13 23  1  0  0  0  0
M  END
