5akw_ligand
 OpenBabel08222323353D

 29 31  0  0  1  0  0  0  0  0999 V2000
   -6.9500  -38.4120    6.3050 Cl  0  0  0  0  0  0  0  0  0  0  0  0
   -8.3540  -38.3480   15.1520 O   0  0  0  0  0  0  0  0  0  0  0  0
   -4.8600  -34.8490   15.8070 C   0  0  0  0  0  0  0  0  0  0  0  0
   -5.5560  -35.6740   16.6990 C   0  0  0  0  0  0  0  0  0  0  0  0
   -6.2300  -37.0290    8.5240 C   0  0  0  0  0  0  0  0  0  0  0  0
   -7.3270  -39.1440    8.9300 C   0  0  0  0  0  0  0  0  0  0  0  0
   -5.0500  -35.0530   14.4410 C   0  0  0  0  0  0  0  0  0  0  0  0
   -6.4230  -36.6660   16.2530 C   0  0  0  0  0  0  0  0  0  0  0  0
   -6.1280  -36.8050    9.8930 C   0  0  0  0  0  0  0  0  0  0  0  0
   -7.2290  -38.9210   10.2880 C   0  0  0  0  0  0  0  0  0  0  0  0
   -7.5770  -38.0950   13.0670 N   0  0  0  0  0  0  0  0  0  0  0  0
   -6.0360  -36.2690   12.6490 N   0  0  0  0  0  0  0  0  0  0  0  0
   -7.4690  -37.8810   14.4330 C   0  0  0  0  0  0  0  0  0  0  0  0
   -6.8230  -38.1900    8.0500 C   0  0  0  0  0  0  0  0  0  0  0  0
   -6.6570  -37.7390   10.7970 C   0  0  0  0  0  0  0  0  0  0  0  0
   -5.8890  -36.0720   13.9990 C   0  0  0  0  0  0  0  0  0  0  0  0
   -6.5630  -36.9130   14.9100 C   0  0  0  0  0  0  0  0  0  0  0  0
   -6.4970  -37.5830   12.1890 C   0  0  2  0  0  0  0  0  0  0  0  0
   -4.1930  -34.0744   16.1680 H   0  0  0  0  0  0  0  0  0  0  0  0
   -5.4155  -35.5360   17.7650 H   0  0  0  0  0  0  0  0  0  0  0  0
   -5.8452  -36.2945    7.8258 H   0  0  0  0  0  0  0  0  0  0  0  0
   -7.7898  -40.0491    8.5535 H   0  0  0  0  0  0  0  0  0  0  0  0
   -4.5442  -34.4178   13.7228 H   0  0  0  0  0  0  0  0  0  0  0  0
   -6.9913  -37.2473   16.9700 H   0  0  0  0  0  0  0  0  0  0  0  0
   -5.6403  -35.9097   10.2613 H   0  0  0  0  0  0  0  0  0  0  0  0
   -7.5999  -39.6709   10.9773 H   0  0  0  0  0  0  0  0  0  0  0  0
   -8.3623  -38.5816   12.6842 H   0  0  0  0  0  0  0  0  0  0  0  0
   -5.8285  -35.5156   11.9780 H   0  0  0  0  0  0  0  0  0  0  0  0
   -5.6496  -38.2496   12.4068 H   0  0  0  0  0  0  0  0  0  0  0  0
  3  4  2  0  0  0  0
  3 19  1  0  0  0  0
  4 20  1  0  0  0  0
  5 14  1  0  0  0  0
  5 21  1  0  0  0  0
  6 14  2  0  0  0  0
  6 22  1  0  0  0  0
  7  3  1  0  0  0  0
  7 23  1  0  0  0  0
  8  4  1  0  0  0  0
  8 24  1  0  0  0  0
  9  5  2  0  0  0  0
  9 25  1  0  0  0  0
 10  6  1  0  0  0  0
 10 26  1  0  0  0  0
 11 13  1  0  0  0  0
 11 27  1  0  0  0  0
 12 16  1  0  0  0  0
 12 28  1  0  0  0  0
 13  2  2  0  0  0  0
 13 17  1  0  0  0  0
 14  1  1  0  0  0  0
 15  9  1  0  0  0  0
 15 10  2  0  0  0  0
 15 18  1  0  0  0  0
 16  7  2  0  0  0  0
 16 17  1  0  0  0  0
 17  8  2  0  0  0  0
 18 11  1  0  0  0  0
 18 12  1  0  0  0  0
 18 29  1  1  0  0  0
M  END
