5al2_ligand
 OpenBabel08222323353D

 37 39  0  0  1  0  0  0  0  0999 V2000
  -38.6260  -10.5590    5.5990 C   0  0  0  0  0  0  0  0  0  0  0  0
  -39.9860  -10.3350    6.3020 C   0  0  0  0  0  0  0  0  0  0  0  0
  -40.5650   -8.9590    5.9510 C   0  0  0  0  0  0  0  0  0  0  0  0
  -39.9020  -10.4600    7.7230 C   0  0  0  0  0  0  0  0  0  0  0  0
  -40.5850  -11.5230    8.3180 C   0  0  0  0  0  0  0  0  0  0  0  0
  -40.5920  -11.7030    9.6830 C   0  0  0  0  0  0  0  0  0  0  0  0
  -39.1800   -9.5880    8.5660 C   0  0  0  0  0  0  0  0  0  0  0  0
  -39.1660   -9.7940    9.9390 C   0  0  0  0  0  0  0  0  0  0  0  0
  -39.8330  -10.8830   10.5160 C   0  0  0  0  0  0  0  0  0  0  0  0
  -39.9390  -11.0440   11.9110 C   0  0  2  0  0  0  0  0  0  0  0  0
  -38.9010  -10.5360   12.8320 N   0  0  0  0  0  0  0  0  0  0  0  0
  -39.0390  -10.6740   14.1870 C   0  0  0  0  0  0  0  0  0  0  0  0
  -38.1760  -10.1000   14.8980 O   0  0  0  0  0  0  0  0  0  0  0  0
  -40.0010  -11.5990   14.6890 C   0  0  0  0  0  0  0  0  0  0  0  0
  -40.1960  -11.7790   16.0550 C   0  0  0  0  0  0  0  0  0  0  0  0
  -41.1300  -12.7190   16.5120 C   0  0  0  0  0  0  0  0  0  0  0  0
  -41.8560  -13.4790   15.5810 C   0  0  0  0  0  0  0  0  0  0  0  0
  -41.6310  -13.3250   14.2090 N   0  0  0  0  0  0  0  0  0  0  0  0
  -40.7450  -12.3810   13.7930 C   0  0  0  0  0  0  0  0  0  0  0  0
  -40.5320  -12.2560   12.4320 N   0  0  0  0  0  0  0  0  0  0  0  0
  -38.7530  -10.4506    4.5118 H   0  0  0  0  0  0  0  0  0  0  0  0
  -38.2580  -11.5704    5.8261 H   0  0  0  0  0  0  0  0  0  0  0  0
  -37.9001   -9.8152    5.9593 H   0  0  0  0  0  0  0  0  0  0  0  0
  -40.6802  -11.1053    5.9351 H   0  0  0  0  0  0  0  0  0  0  0  0
  -41.5296   -8.8258    6.4626 H   0  0  0  0  0  0  0  0  0  0  0  0
  -40.7144   -8.8906    4.8633 H   0  0  0  0  0  0  0  0  0  0  0  0
  -39.8664   -8.1736    6.2753 H   0  0  0  0  0  0  0  0  0  0  0  0
  -41.1229  -12.2236    7.6896 H   0  0  0  0  0  0  0  0  0  0  0  0
  -41.1957  -12.4927   10.1154 H   0  0  0  0  0  0  0  0  0  0  0  0
  -38.6342   -8.7541    8.1397 H   0  0  0  0  0  0  0  0  0  0  0  0
  -38.6295   -9.1001   10.5760 H   0  0  0  0  0  0  0  0  0  0  0  0
  -40.7444  -10.3197   12.1027 H   0  0  0  0  0  0  0  0  0  0  0  0
  -38.0884  -10.0863   12.4612 H   0  0  0  0  0  0  0  0  0  0  0  0
  -39.6255  -11.1922   16.7658 H   0  0  0  0  0  0  0  0  0  0  0  0
  -41.2904  -12.8580   17.5750 H   0  0  0  0  0  0  0  0  0  0  0  0
  -42.5965  -14.1905   15.9281 H   0  0  0  0  0  0  0  0  0  0  0  0
  -40.7939  -13.0209   11.7938 H   0  0  0  0  0  0  0  0  0  0  0  0
  1  2  1  0  0  0  0
  1 21  1  0  0  0  0
  1 22  1  0  0  0  0
  1 23  1  0  0  0  0
  2  3  1  0  0  0  0
  2  4  1  0  0  0  0
  2 24  1  0  0  0  0
  3 25  1  0  0  0  0
  3 26  1  0  0  0  0
  3 27  1  0  0  0  0
  4  5  2  0  0  0  0
  4  7  1  0  0  0  0
  5  6  1  0  0  0  0
  5 28  1  0  0  0  0
  6  9  2  0  0  0  0
  6 29  1  0  0  0  0
  7  8  2  0  0  0  0
  7 30  1  0  0  0  0
  8  9  1  0  0  0  0
  8 31  1  0  0  0  0
  9 10  1  0  0  0  0
 10 11  1  0  0  0  0
 10 20  1  0  0  0  0
 10 32  1  1  0  0  0
 11 12  1  0  0  0  0
 11 33  1  0  0  0  0
 12 13  2  0  0  0  0
 12 14  1  0  0  0  0
 14 15  2  0  0  0  0
 14 19  1  0  0  0  0
 15 16  1  0  0  0  0
 15 34  1  0  0  0  0
 16 17  2  0  0  0  0
 16 35  1  0  0  0  0
 17 18  1  0  0  0  0
 17 36  1  0  0  0  0
 18 19  2  0  0  0  0
 19 20  1  0  0  0  0
 20 37  1  0  0  0  0
M  END
