5al4_ligand
 OpenBabel08222323353D

 40 42  0  0  1  0  0  0  0  0999 V2000
  -39.8590  -12.0780    9.5770 C   0  0  0  0  0  0  0  0  0  0  0  0
  -39.1500  -12.1660    8.3060 C   0  0  0  0  0  0  0  0  0  0  0  0
  -38.7950  -10.8460    7.7910 N   0  3  2  0  0  0  0  0  0  0  0  0
  -38.1140  -11.0210    6.4820 C   0  0  0  0  0  0  0  0  0  0  0  0
  -37.8320  -10.1500    8.6400 C   0  0  0  0  0  0  0  0  0  0  0  0
  -38.3060  -10.1150   10.0610 C   0  0  0  0  0  0  0  0  0  0  0  0
  -38.9480  -11.3820   10.5380 N   0  0  1  0  0  0  0  0  0  0  0  0
  -38.9330  -11.6850   11.8720 C   0  0  2  0  0  3  0  0  0  0  0  0
  -39.7650  -12.6050   12.3590 N   0  0  0  0  0  0  0  0  0  0  0  0
  -39.7980  -12.9740   13.6730 C   0  0  0  0  0  0  0  0  0  0  0  0
  -40.7260  -13.9770   13.9600 C   0  0  0  0  0  0  0  0  0  0  0  0
  -40.4000  -14.6370   15.2780 C   0  0  0  0  0  0  0  0  0  0  0  0
  -40.2600  -13.5470   16.3640 C   0  0  0  0  0  0  0  0  0  0  0  0
  -39.0340  -12.6340   16.0330 C   0  0  0  0  0  0  0  0  0  0  0  0
  -39.0160  -12.3240   14.6150 C   0  0  1  0  0  0  0  0  0  0  0  0
  -38.1100  -11.3290   14.1070 C   0  0  0  0  0  0  0  0  0  0  0  0
  -37.3180  -10.6960   14.8070 O   0  0  0  0  0  0  0  0  0  0  0  0
  -38.0790  -11.0290   12.7660 N   0  0  0  0  0  0  0  0  0  0  0  0
  -40.0990  -13.0859    9.9464 H   0  0  0  0  0  0  0  0  0  0  0  0
  -40.7879  -11.5022    9.4525 H   0  0  0  0  0  0  0  0  0  0  0  0
  -39.7947  -12.6727    7.5728 H   0  0  0  0  0  0  0  0  0  0  0  0
  -38.2298  -12.7509    8.4512 H   0  0  0  0  0  0  0  0  0  0  0  0
  -39.6299  -10.2903    7.6900 H   0  0  0  0  0  0  0  0  0  0  0  0
  -37.8384  -10.0359    6.0775 H   0  0  0  0  0  0  0  0  0  0  0  0
  -38.7925  -11.5286    5.7806 H   0  0  0  0  0  0  0  0  0  0  0  0
  -37.2069  -11.6280    6.6188 H   0  0  0  0  0  0  0  0  0  0  0  0
  -37.7079   -9.1196    8.2755 H   0  0  0  0  0  0  0  0  0  0  0  0
  -36.8659  -10.6739    8.5946 H   0  0  0  0  0  0  0  0  0  0  0  0
  -39.0401   -9.3015   10.1575 H   0  0  0  0  0  0  0  0  0  0  0  0
  -37.4399   -9.9058   10.7061 H   0  0  0  0  0  0  0  0  0  0  0  0
  -40.4191  -13.0629   11.7083 H   0  0  0  0  0  0  0  0  0  0  0  0
  -41.5670  -14.2455   13.3225 H   0  0  0  0  0  0  0  0  0  0  0  0
  -39.4548  -15.1924   15.1887 H   0  0  0  0  0  0  0  0  0  0  0  0
  -41.2082  -15.3305   15.5533 H   0  0  0  0  0  0  0  0  0  0  0  0
  -40.1082  -14.0233   17.3438 H   0  0  0  0  0  0  0  0  0  0  0  0
  -41.1747  -12.9367   16.3907 H   0  0  0  0  0  0  0  0  0  0  0  0
  -38.1055  -13.1583   16.3033 H   0  0  0  0  0  0  0  0  0  0  0  0
  -39.1088  -11.7001   16.6093 H   0  0  0  0  0  0  0  0  0  0  0  0
  -39.8028  -11.5711   14.7701 H   0  0  0  0  0  0  0  0  0  0  0  0
  -37.4417  -10.3371   12.4267 H   0  0  0  0  0  0  0  0  0  0  0  0
  1  2  1  0  0  0  0
  1 19  1  0  0  0  0
  1 20  1  0  0  0  0
  2  3  1  0  0  0  0
  2 21  1  0  0  0  0
  2 22  1  0  0  0  0
  3  4  1  0  0  0  0
  3  5  1  0  0  0  0
  3 23  1  6  0  0  0
  4 24  1  0  0  0  0
  4 25  1  0  0  0  0
  4 26  1  0  0  0  0
  5  6  1  0  0  0  0
  5 27  1  0  0  0  0
  5 28  1  0  0  0  0
  6  7  1  0  0  0  0
  6 29  1  0  0  0  0
  6 30  1  0  0  0  0
  7  1  1  1  0  0  0
  7  8  1  0  0  0  0
  8  9  1  1  0  0  0
  8 18  1  0  0  0  0
  9 10  1  0  0  0  0
  9 31  1  0  0  0  0
 10 11  2  0  0  0  0
 10 15  1  0  0  0  0
 11 12  1  0  0  0  0
 11 32  1  0  0  0  0
 12 13  1  0  0  0  0
 12 33  1  0  0  0  0
 12 34  1  0  0  0  0
 13 14  1  0  0  0  0
 13 35  1  0  0  0  0
 13 36  1  0  0  0  0
 14 15  1  0  0  0  0
 14 37  1  0  0  0  0
 14 38  1  0  0  0  0
 15 16  1  0  0  0  0
 15 39  1  1  0  0  0
 16 17  2  0  0  0  0
 16 18  1  0  0  0  0
 18 40  1  0  0  0  0
M  CHG  1   3   1
M  END
