5ald_ligand
 OpenBabel08222323353D

 33 35  0  0  0  0  0  0  0  0999 V2000
  -16.0330   -9.5810   12.2040 C   0  0  0  0  0  0  0  0  0  0  0  0
  -14.7370   -9.7850   11.7600 C   0  0  0  0  0  0  0  0  0  0  0  0
  -14.4950   -9.5970   10.4180 C   0  0  0  0  0  0  0  0  0  0  0  0
  -15.4770   -9.2450    9.5460 C   0  0  0  0  0  0  0  0  0  0  0  0
  -16.7620   -9.0620    9.9880 C   0  0  0  0  0  0  0  0  0  0  0  0
  -17.0470   -9.2220   11.3300 C   0  0  0  0  0  0  0  0  0  0  0  0
  -18.4630   -8.9840   11.7690 C   0  0  0  0  0  0  0  0  0  0  0  0
  -19.1940  -10.1840   12.3550 C   0  0  0  0  0  0  0  0  0  0  0  0
  -20.6760   -9.8580   12.4520 C   0  0  0  0  0  0  0  0  0  0  0  0
  -20.9600   -8.5230   13.1470 C   0  0  0  0  0  0  0  0  0  0  0  0
  -20.1340   -7.3500   12.6200 C   0  0  0  0  0  0  0  0  0  0  0  0
  -18.6610   -7.7120   12.5970 C   0  0  0  0  0  0  0  0  0  0  0  0
  -14.9910   -9.1110    8.1640 C   0  0  0  0  0  0  0  0  0  0  0  0
  -13.5050   -9.3920    8.3760 C   0  0  0  0  0  0  0  0  0  0  0  0
  -12.6640   -9.3400    7.4670 O   0  0  0  0  0  0  0  0  0  0  0  0
  -13.2990   -9.7200    9.7270 N   0  0  0  0  0  0  0  0  0  0  0  0
  -16.2589   -9.7047   13.2570 H   0  0  0  0  0  0  0  0  0  0  0  0
  -13.9466  -10.0802   12.4406 H   0  0  0  0  0  0  0  0  0  0  0  0
  -17.5473   -8.7941    9.2904 H   0  0  0  0  0  0  0  0  0  0  0  0
  -18.9959   -8.7819   10.8282 H   0  0  0  0  0  0  0  0  0  0  0  0
  -18.7980  -10.4044   13.3573 H   0  0  0  0  0  0  0  0  0  0  0  0
  -19.0501  -11.0585   11.7034 H   0  0  0  0  0  0  0  0  0  0  0  0
  -21.1730  -10.6590   13.0188 H   0  0  0  0  0  0  0  0  0  0  0  0
  -21.0915   -9.8168   11.4343 H   0  0  0  0  0  0  0  0  0  0  0  0
  -20.7456   -8.6407   14.2194 H   0  0  0  0  0  0  0  0  0  0  0  0
  -22.0248   -8.2832   13.0101 H   0  0  0  0  0  0  0  0  0  0  0  0
  -20.2833   -6.4782   13.2739 H   0  0  0  0  0  0  0  0  0  0  0  0
  -20.4631   -7.1037   11.5997 H   0  0  0  0  0  0  0  0  0  0  0  0
  -18.0877   -6.8882   12.1470 H   0  0  0  0  0  0  0  0  0  0  0  0
  -18.3095   -7.8847   13.6249 H   0  0  0  0  0  0  0  0  0  0  0  0
  -15.1624   -8.0994    7.7674 H   0  0  0  0  0  0  0  0  0  0  0  0
  -15.4547   -9.8507    7.4948 H   0  0  0  0  0  0  0  0  0  0  0  0
  -12.4261   -9.9986   10.1275 H   0  0  0  0  0  0  0  0  0  0  0  0
  1  2  2  0  0  0  0
  1  6  1  0  0  0  0
  1 17  1  0  0  0  0
  2  3  1  0  0  0  0
  2 18  1  0  0  0  0
  3  4  2  0  0  0  0
  3 16  1  0  0  0  0
  4  5  1  0  0  0  0
  4 13  1  0  0  0  0
  5  6  2  0  0  0  0
  5 19  1  0  0  0  0
  6  7  1  0  0  0  0
  7  8  1  0  0  0  0
  7 12  1  0  0  0  0
  7 20  1  0  0  0  0
  8  9  1  0  0  0  0
  8 21  1  0  0  0  0
  8 22  1  0  0  0  0
  9 10  1  0  0  0  0
  9 23  1  0  0  0  0
  9 24  1  0  0  0  0
 10 11  1  0  0  0  0
 10 25  1  0  0  0  0
 10 26  1  0  0  0  0
 11 12  1  0  0  0  0
 11 27  1  0  0  0  0
 11 28  1  0  0  0  0
 12 29  1  0  0  0  0
 12 30  1  0  0  0  0
 13 14  1  0  0  0  0
 13 31  1  0  0  0  0
 13 32  1  0  0  0  0
 14 15  2  0  0  0  0
 14 16  1  0  0  0  0
 16 33  1  0  0  0  0
M  END
