5alh_ligand
 OpenBabel08222323353D

 72 75  0  0  0  0  0  0  0  0999 V2000
    9.4960   11.2630   19.7010 C   0  0  0  0  0  0  0  0  0  0  0  0
   10.1530   12.4000   20.1160 C   0  0  0  0  0  0  0  0  0  0  0  0
   10.2280   10.1790   19.2660 C   0  0  0  0  0  0  0  0  0  0  0  0
   11.5320   12.4450   20.0930 C   0  0  0  0  0  0  0  0  0  0  0  0
   11.6050   10.2370   19.2460 C   0  0  0  0  0  0  0  0  0  0  0  0
   18.4760   10.3530   11.0880 C   0  0  0  0  0  0  0  0  0  0  0  0
   16.1650   10.4820   11.6660 C   0  0  0  0  0  0  0  0  0  0  0  0
   18.8260   10.6860   12.3840 C   0  0  0  0  0  0  0  0  0  0  0  0
   16.5130   10.8130   12.9620 C   0  0  0  0  0  0  0  0  0  0  0  0
   10.3010    7.3050   21.9690 C   0  0  0  0  0  0  0  0  0  0  0  0
   10.0120    8.4400   22.6920 C   0  0  0  0  0  0  0  0  0  0  0  0
   12.6440    7.8370   22.0600 C   0  0  0  0  0  0  0  0  0  0  0  0
   12.2900   11.3720   19.6500 C   0  0  0  0  0  0  0  0  0  0  0  0
   17.1480   10.2600   10.7220 C   0  0  0  0  0  0  0  0  0  0  0  0
   17.8420   10.9230   13.3250 C   0  0  0  0  0  0  0  0  0  0  0  0
   11.6140    7.0220   21.6650 C   0  0  0  0  0  0  0  0  0  0  0  0
   11.0340    9.2830   23.0960 C   0  0  0  0  0  0  0  0  0  0  0  0
   12.3530    8.9710   22.7770 C   0  0  0  0  0  0  0  0  0  0  0  0
   16.6810   10.7610   16.5340 C   0  0  0  0  0  0  0  0  0  0  0  0
   14.2940   12.6360   18.8210 C   0  0  0  0  0  0  0  0  0  0  0  0
   14.3920   10.1350   19.0760 C   0  0  0  0  0  0  0  0  0  0  0  0
   15.5580   12.4040   18.0020 C   0  0  0  0  0  0  0  0  0  0  0  0
   14.5960   10.1650   17.5750 C   0  0  0  0  0  0  0  0  0  0  0  0
   13.8060   11.4330   19.6300 C   0  0  0  0  0  0  0  0  0  0  0  0
   16.7720    9.9070    9.3250 C   0  0  0  0  0  0  0  0  0  0  0  0
   11.9640    5.8200   20.9070 C   0  0  0  0  0  0  0  0  0  0  0  0
    9.4820   10.9470   23.3600 C   0  0  0  0  0  0  0  0  0  0  0  0
   18.2400   11.2860   14.7110 C   0  0  0  0  0  0  0  0  0  0  0  0
   14.2560   11.6100   21.0730 C   0  0  0  0  0  0  0  0  0  0  0  0
   15.5540   11.1860   17.2170 N   0  0  0  0  0  0  0  0  0  0  0  0
   17.1310   11.6240   15.5750 N   0  0  0  0  0  0  0  0  0  0  0  0
   14.4820   10.2880   21.6940 N   0  0  0  0  0  0  0  0  0  0  0  0
   17.2170    9.6830   16.7380 O   0  0  0  0  0  0  0  0  0  0  0  0
   13.3750   11.0800   23.9500 O   0  0  0  0  0  0  0  0  0  0  0  0
   14.6920    8.9500   23.8500 O   0  0  0  0  0  0  0  0  0  0  0  0
   10.7150   10.4140   23.8390 O   0  0  0  0  0  0  0  0  0  0  0  0
   13.8050    9.9080   23.2250 S   0  0  0  0  0  0  0  0  0  0  0  0
    8.4129   11.2209   19.7163 H   0  0  0  0  0  0  0  0  0  0  0  0
    9.5876   13.2584   20.4603 H   0  0  0  0  0  0  0  0  0  0  0  0
    9.7197    9.2791   18.9390 H   0  0  0  0  0  0  0  0  0  0  0  0
   12.0361   13.3434   20.4303 H   0  0  0  0  0  0  0  0  0  0  0  0
   12.1658    9.3739   18.9060 H   0  0  0  0  0  0  0  0  0  0  0  0
   19.2506   10.1635   10.3537 H   0  0  0  0  0  0  0  0  0  0  0  0
   15.1201   10.3966   11.3905 H   0  0  0  0  0  0  0  0  0  0  0  0
   19.8712   10.7610   12.6614 H   0  0  0  0  0  0  0  0  0  0  0  0
   15.7377   10.9876   13.6993 H   0  0  0  0  0  0  0  0  0  0  0  0
    9.5064    6.6433   21.6435 H   0  0  0  0  0  0  0  0  0  0  0  0
    8.9843    8.6742   22.9453 H   0  0  0  0  0  0  0  0  0  0  0  0
   13.6696    7.5901   21.8105 H   0  0  0  0  0  0  0  0  0  0  0  0
   13.4903   12.9282   18.1292 H   0  0  0  0  0  0  0  0  0  0  0  0
   14.4910   13.4596   19.5231 H   0  0  0  0  0  0  0  0  0  0  0  0
   15.3649    9.9572   19.5576 H   0  0  0  0  0  0  0  0  0  0  0  0
   13.7062    9.3101   19.3192 H   0  0  0  0  0  0  0  0  0  0  0  0
   16.4122   12.3633   18.6938 H   0  0  0  0  0  0  0  0  0  0  0  0
   15.6825   13.2542   17.3152 H   0  0  0  0  0  0  0  0  0  0  0  0
   13.6360   10.3803   17.0830 H   0  0  0  0  0  0  0  0  0  0  0  0
   14.9681    9.1855   17.2401 H   0  0  0  0  0  0  0  0  0  0  0  0
   17.6828    9.7694    8.7238 H   0  0  0  0  0  0  0  0  0  0  0  0
   16.1661   10.7169    8.8925 H   0  0  0  0  0  0  0  0  0  0  0  0
   16.1894    8.9740    9.3267 H   0  0  0  0  0  0  0  0  0  0  0  0
   11.0481    5.2642   20.6576 H   0  0  0  0  0  0  0  0  0  0  0  0
   12.6254    5.1837   21.5134 H   0  0  0  0  0  0  0  0  0  0  0  0
   12.4815    6.1086   19.9802 H   0  0  0  0  0  0  0  0  0  0  0  0
    9.2195   11.8432   23.9413 H   0  0  0  0  0  0  0  0  0  0  0  0
    8.6889   10.1929   23.4707 H   0  0  0  0  0  0  0  0  0  0  0  0
    9.5865   11.2161   22.2986 H   0  0  0  0  0  0  0  0  0  0  0  0
   18.9151   12.1530   14.6606 H   0  0  0  0  0  0  0  0  0  0  0  0
   18.7733   10.4311   15.1522 H   0  0  0  0  0  0  0  0  0  0  0  0
   13.4784   12.1487   21.6343 H   0  0  0  0  0  0  0  0  0  0  0  0
   15.1914   12.1883   21.0953 H   0  0  0  0  0  0  0  0  0  0  0  0
   16.6823   12.5113   15.4681 H   0  0  0  0  0  0  0  0  0  0  0  0
   15.0362    9.6064   21.2163 H   0  0  0  0  0  0  0  0  0  0  0  0
  1 38  1  0  0  0  0
  2  1  2  0  0  0  0
  2 39  1  0  0  0  0
  3  1  1  0  0  0  0
  3 40  1  0  0  0  0
  4  2  1  0  0  0  0
  4 41  1  0  0  0  0
  5  3  2  0  0  0  0
  5 42  1  0  0  0  0
  6 14  1  0  0  0  0
  6 43  1  0  0  0  0
  7 14  2  0  0  0  0
  7 44  1  0  0  0  0
  8  6  2  0  0  0  0
  8 45  1  0  0  0  0
  9  7  1  0  0  0  0
  9 46  1  0  0  0  0
 10 47  1  0  0  0  0
 11 10  2  0  0  0  0
 11 48  1  0  0  0  0
 12 16  2  0  0  0  0
 12 49  1  0  0  0  0
 13  4  2  0  0  0  0
 13  5  1  0  0  0  0
 14 25  1  0  0  0  0
 15  8  1  0  0  0  0
 15  9  2  0  0  0  0
 16 10  1  0  0  0  0
 16 26  1  0  0  0  0
 17 11  1  0  0  0  0
 17 36  1  0  0  0  0
 18 12  1  0  0  0  0
 18 17  2  0  0  0  0
 19 31  1  0  0  0  0
 19 33  2  0  0  0  0
 20 22  1  0  0  0  0
 20 50  1  0  0  0  0
 20 51  1  0  0  0  0
 21 23  1  0  0  0  0
 21 52  1  0  0  0  0
 21 53  1  0  0  0  0
 22 30  1  0  0  0  0
 22 54  1  0  0  0  0
 22 55  1  0  0  0  0
 23 30  1  0  0  0  0
 23 56  1  0  0  0  0
 23 57  1  0  0  0  0
 24 13  1  0  0  0  0
 24 20  1  0  0  0  0
 24 21  1  0  0  0  0
 25 58  1  0  0  0  0
 25 59  1  0  0  0  0
 25 60  1  0  0  0  0
 26 61  1  0  0  0  0
 26 62  1  0  0  0  0
 26 63  1  0  0  0  0
 27 64  1  0  0  0  0
 27 65  1  0  0  0  0
 27 66  1  0  0  0  0
 28 15  1  0  0  0  0
 28 67  1  0  0  0  0
 28 68  1  0  0  0  0
 29 24  1  0  0  0  0
 29 69  1  0  0  0  0
 29 70  1  0  0  0  0
 30 19  1  0  0  0  0
 31 28  1  0  0  0  0
 31 71  1  0  0  0  0
 32 29  1  0  0  0  0
 32 37  1  0  0  0  0
 32 72  1  0  0  0  0
 36 27  1  0  0  0  0
 37 18  1  0  0  0  0
 37 34  2  0  0  0  0
 37 35  2  0  0  0  0
M  END
