5ali_ligand
 OpenBabel08222323353D

 65 70  0  0  1  0  0  0  0  0999 V2000
   20.5580   -7.3760  -11.9490 C   0  0  0  0  0  0  0  0  0  0  0  0
   20.6100   -8.8000  -11.9500 O   0  0  0  0  0  0  0  0  0  0  0  0
   19.5780   -9.3130  -12.7240 C   0  0  0  0  0  0  0  0  0  0  0  0
   19.6020  -10.6750  -12.9460 C   0  0  0  0  0  0  0  0  0  0  0  0
   18.6010  -11.2560  -13.6970 C   0  0  0  0  0  0  0  0  0  0  0  0
   17.5890  -10.4840  -14.2280 C   0  0  0  0  0  0  0  0  0  0  0  0
   17.5570   -9.1230  -13.9860 C   0  0  0  0  0  0  0  0  0  0  0  0
   18.5560   -8.5330  -13.2390 C   0  0  0  0  0  0  0  0  0  0  0  0
   16.5850  -11.1330  -14.9820 N   0  0  0  0  0  0  0  0  0  0  0  0
   16.1020  -10.7120  -16.2070 C   0  0  0  0  0  0  0  0  0  0  0  0
   16.4280   -9.6760  -16.7660 O   0  0  0  0  0  0  0  0  0  0  0  0
   15.1900  -11.6200  -16.7100 N   0  0  0  0  0  0  0  0  0  0  0  0
   14.6380  -11.6100  -18.0070 C   0  0  0  0  0  0  0  0  0  0  0  0
   14.9300  -12.6390  -18.8810 C   0  0  0  0  0  0  0  0  0  0  0  0
   14.3660  -12.6570  -20.1420 C   0  0  0  0  0  0  0  0  0  0  0  0
   13.5040  -11.6520  -20.5380 C   0  0  0  0  0  0  0  0  0  0  0  0
   13.1810  -10.6290  -19.6650 C   0  0  0  0  0  0  0  0  0  0  0  0
   13.7570  -10.6210  -18.4040 C   0  0  0  0  0  0  0  0  0  0  0  0
   12.2710   -9.5510  -20.0170 C   0  0  0  0  0  0  0  0  0  0  0  0
   11.3360   -9.4480  -21.0420 C   0  0  0  0  0  0  0  0  0  0  0  0
   10.8160   -8.1830  -20.8930 N   0  0  0  0  0  0  0  0  0  0  0  0
   11.4490   -7.5810  -19.8490 C   0  0  0  0  0  0  0  0  0  0  0  0
   12.3200   -8.3870  -19.2950 N   0  0  0  0  0  0  0  0  0  0  0  0
    9.8880   -7.4190  -21.7250 C   0  0  0  0  0  0  0  0  0  0  0  0
    8.4780   -7.9370  -21.9040 C   0  0  2  0  0  0  0  0  0  0  0  0
    7.9110   -7.3850  -23.1890 C   0  0  0  0  0  0  0  0  0  0  0  0
    6.6100   -6.7350  -22.8110 C   0  0  0  0  0  0  0  0  0  0  0  0
    6.3930   -7.1030  -21.3660 C   0  0  0  0  0  0  0  0  0  0  0  0
    7.6500   -7.5080  -20.8300 O   0  0  0  0  0  0  0  0  0  0  0  0
   10.8560  -10.3390  -22.0460 C   0  0  0  0  0  0  0  0  0  0  0  0
   11.4580  -10.5230  -23.2030 N   0  0  0  0  0  0  0  0  0  0  0  0
   10.7210  -11.3670  -23.9990 C   0  0  0  0  0  0  0  0  0  0  0  0
   10.9940  -11.8070  -25.2890 C   0  0  0  0  0  0  0  0  0  0  0  0
   10.1070  -12.6150  -25.8860 N   0  0  0  0  0  0  0  0  0  0  0  0
    8.9980  -12.9480  -25.2170 C   0  0  0  0  0  0  0  0  0  0  0  0
    8.6240  -12.5950  -23.9830 N   0  0  0  0  0  0  0  0  0  0  0  0
    9.5330  -11.7900  -23.4290 C   0  0  0  0  0  0  0  0  0  0  0  0
    9.3620  -11.1650  -21.8420 S   0  0  0  0  0  0  0  0  0  0  0  0
   12.1670  -11.4540  -25.9620 N   0  0  0  0  0  0  0  0  0  0  0  0
   21.3790   -6.9796  -11.3336 H   0  0  0  0  0  0  0  0  0  0  0  0
   19.5951   -7.0445  -11.5332 H   0  0  0  0  0  0  0  0  0  0  0  0
   20.6599   -7.0046  -12.9794 H   0  0  0  0  0  0  0  0  0  0  0  0
   20.3998  -11.2825  -12.5342 H   0  0  0  0  0  0  0  0  0  0  0  0
   18.6100  -12.3259  -13.8708 H   0  0  0  0  0  0  0  0  0  0  0  0
   16.7481   -8.5202  -14.3826 H   0  0  0  0  0  0  0  0  0  0  0  0
   18.5409   -7.4646  -13.0562 H   0  0  0  0  0  0  0  0  0  0  0  0
   16.1907  -11.9673  -14.5967 H   0  0  0  0  0  0  0  0  0  0  0  0
   14.8940  -12.3524  -16.0968 H   0  0  0  0  0  0  0  0  0  0  0  0
   15.6023  -13.4332  -18.5771 H   0  0  0  0  0  0  0  0  0  0  0  0
   14.6012  -13.4649  -20.8254 H   0  0  0  0  0  0  0  0  0  0  0  0
   13.0799  -11.6655  -21.5355 H   0  0  0  0  0  0  0  0  0  0  0  0
   13.5113   -9.8218  -17.7141 H   0  0  0  0  0  0  0  0  0  0  0  0
   11.2562   -6.5617  -19.5176 H   0  0  0  0  0  0  0  0  0  0  0  0
   10.3359   -7.3465  -22.7270 H   0  0  0  0  0  0  0  0  0  0  0  0
    9.8102   -6.4141  -21.2845 H   0  0  0  0  0  0  0  0  0  0  0  0
    8.4930   -9.0362  -21.9426 H   0  0  0  0  0  0  0  0  0  0  0  0
    7.7391   -8.1957  -23.9123 H   0  0  0  0  0  0  0  0  0  0  0  0
    8.5977   -6.6444  -23.6247 H   0  0  0  0  0  0  0  0  0  0  0  0
    5.7901   -7.1203  -23.4350 H   0  0  0  0  0  0  0  0  0  0  0  0
    6.6761   -5.6430  -22.9257 H   0  0  0  0  0  0  0  0  0  0  0  0
    5.6709   -7.9297  -21.2940 H   0  0  0  0  0  0  0  0  0  0  0  0
    6.0114   -6.2334  -20.8109 H   0  0  0  0  0  0  0  0  0  0  0  0
    8.3074  -13.5928  -25.7483 H   0  0  0  0  0  0  0  0  0  0  0  0
   12.3360  -11.7988  -26.9177 H   0  0  0  0  0  0  0  0  0  0  0  0
   12.8624  -10.8491  -25.5022 H   0  0  0  0  0  0  0  0  0  0  0  0
  1  2  1  0  0  0  0
  1 40  1  0  0  0  0
  1 41  1  0  0  0  0
  1 42  1  0  0  0  0
  2  3  1  0  0  0  0
  3  4  2  0  0  0  0
  3  8  1  0  0  0  0
  4  5  1  0  0  0  0
  4 43  1  0  0  0  0
  5  6  2  0  0  0  0
  5 44  1  0  0  0  0
  6  7  1  0  0  0  0
  6  9  1  0  0  0  0
  7  8  2  0  0  0  0
  7 45  1  0  0  0  0
  8 46  1  0  0  0  0
  9 10  1  0  0  0  0
  9 47  1  0  0  0  0
 10 11  2  0  0  0  0
 10 12  1  0  0  0  0
 12 13  1  0  0  0  0
 12 48  1  0  0  0  0
 13 14  2  0  0  0  0
 13 18  1  0  0  0  0
 14 15  1  0  0  0  0
 14 49  1  0  0  0  0
 15 16  2  0  0  0  0
 15 50  1  0  0  0  0
 16 17  1  0  0  0  0
 16 51  1  0  0  0  0
 17 18  2  0  0  0  0
 17 19  1  0  0  0  0
 18 52  1  0  0  0  0
 19 20  2  0  0  0  0
 19 23  1  0  0  0  0
 20 21  1  0  0  0  0
 20 30  1  0  0  0  0
 21 22  1  0  0  0  0
 21 24  1  0  0  0  0
 22 23  2  0  0  0  0
 22 53  1  0  0  0  0
 24 25  1  0  0  0  0
 24 54  1  0  0  0  0
 24 55  1  0  0  0  0
 25 26  1  0  0  0  0
 25 29  1  0  0  0  0
 25 56  1  6  0  0  0
 26 27  1  0  0  0  0
 26 57  1  0  0  0  0
 26 58  1  0  0  0  0
 27 28  1  0  0  0  0
 27 59  1  0  0  0  0
 27 60  1  0  0  0  0
 28 29  1  0  0  0  0
 28 61  1  0  0  0  0
 28 62  1  0  0  0  0
 30 31  2  0  0  0  0
 30 38  1  0  0  0  0
 31 32  1  0  0  0  0
 32 33  2  0  0  0  0
 32 37  1  0  0  0  0
 33 34  1  0  0  0  0
 33 39  1  0  0  0  0
 34 35  2  0  0  0  0
 35 36  1  0  0  0  0
 35 63  1  0  0  0  0
 36 37  2  0  0  0  0
 37 38  1  0  0  0  0
 39 64  1  0  0  0  0
 39 65  1  0  0  0  0
M  END
