5alk_ligand
 OpenBabel08222323353D

 42 44  0  0  0  0  0  0  0  0999 V2000
   16.0250   10.2830   12.2330 C   0  0  0  0  0  0  0  0  0  0  0  0
   17.3720    9.8670   11.9050 C   0  0  0  0  0  0  0  0  0  0  0  0
   17.6930    9.5640   10.4400 C   0  0  0  0  0  0  0  0  0  0  0  0
   16.5620    9.7090    9.5160 C   0  0  0  0  0  0  0  0  0  0  0  0
   15.0720   10.3530   11.1750 C   0  0  0  0  0  0  0  0  0  0  0  0
   15.2860   10.7090   13.4140 C   0  0  0  0  0  0  0  0  0  0  0  0
   18.4480    9.7560   13.0020 C   0  0  0  0  0  0  0  0  0  0  0  0
   19.1400    9.1270    9.9850 C   0  0  0  0  0  0  0  0  0  0  0  0
   19.8390    9.3160   12.6020 C   0  0  0  0  0  0  0  0  0  0  0  0
   20.5850   10.5770   12.2880 C   0  0  0  0  0  0  0  0  0  0  0  0
   20.4510    8.7130   13.8100 C   0  0  0  0  0  0  0  0  0  0  0  0
   15.5710    6.8890    5.8670 C   0  0  0  0  0  0  0  0  0  0  0  0
   16.8640    9.4320    8.1110 C   0  0  0  0  0  0  0  0  0  0  0  0
   16.5610    7.8810    6.4110 C   0  0  0  0  0  0  0  0  0  0  0  0
   15.8110    8.7320    7.3670 C   0  0  0  0  0  0  0  0  0  0  0  0
   15.2430   10.0770    9.9040 N   0  0  0  0  0  0  0  0  0  0  0  0
   14.0000   11.0250   13.0010 N   0  0  0  0  0  0  0  0  0  0  0  0
   13.9120   10.8100   11.6540 N   0  0  0  0  0  0  0  0  0  0  0  0
   15.8380   10.8080   14.6480 N   0  0  0  0  0  0  0  0  0  0  0  0
   19.8470    7.9880   11.2340 S   0  0  0  0  0  0  0  0  0  0  0  0
   18.0802    9.0349   13.7468 H   0  0  0  0  0  0  0  0  0  0  0  0
   18.5418   10.7483   13.4674 H   0  0  0  0  0  0  0  0  0  0  0  0
   19.7810   10.0162    9.8936 H   0  0  0  0  0  0  0  0  0  0  0  0
   19.0811    8.6159    9.0128 H   0  0  0  0  0  0  0  0  0  0  0  0
   21.6136   10.3292   11.9871 H   0  0  0  0  0  0  0  0  0  0  0  0
   20.6089   11.2207   13.1797 H   0  0  0  0  0  0  0  0  0  0  0  0
   20.0803   11.1068   11.4667 H   0  0  0  0  0  0  0  0  0  0  0  0
   19.9213    7.7830   14.0640 H   0  0  0  0  0  0  0  0  0  0  0  0
   20.3760    9.4188   14.6503 H   0  0  0  0  0  0  0  0  0  0  0  0
   21.5097    8.4896   13.6121 H   0  0  0  0  0  0  0  0  0  0  0  0
   16.0738    6.2262    5.1473 H   0  0  0  0  0  0  0  0  0  0  0  0
   14.7539    7.4254    5.3625 H   0  0  0  0  0  0  0  0  0  0  0  0
   15.1610    6.2894    6.6931 H   0  0  0  0  0  0  0  0  0  0  0  0
   17.7732    8.8139    8.0748 H   0  0  0  0  0  0  0  0  0  0  0  0
   17.0532   10.3922    7.6089 H   0  0  0  0  0  0  0  0  0  0  0  0
   16.9730    8.4946    5.5963 H   0  0  0  0  0  0  0  0  0  0  0  0
   17.3801    7.3586    6.9269 H   0  0  0  0  0  0  0  0  0  0  0  0
   15.1665    9.4464    6.8338 H   0  0  0  0  0  0  0  0  0  0  0  0
   15.1971    8.1169    8.0414 H   0  0  0  0  0  0  0  0  0  0  0  0
   13.2396   11.3644   13.6072 H   0  0  0  0  0  0  0  0  0  0  0  0
   16.8185   10.5303   14.7973 H   0  0  0  0  0  0  0  0  0  0  0  0
   15.2769   11.1609   15.4364 H   0  0  0  0  0  0  0  0  0  0  0  0
  1  6  2  0  0  0  0
  2  1  1  0  0  0  0
  2  7  1  0  0  0  0
  3  2  2  0  0  0  0
  3  8  1  0  0  0  0
  4  3  1  0  0  0  0
  4 16  2  0  0  0  0
  5  1  1  0  0  0  0
  5 18  2  0  0  0  0
  6 17  1  0  0  0  0
  6 19  1  0  0  0  0
  7  9  1  0  0  0  0
  7 21  1  0  0  0  0
  7 22  1  0  0  0  0
  8 20  1  0  0  0  0
  8 23  1  0  0  0  0
  8 24  1  0  0  0  0
  9 10  1  0  0  0  0
  9 11  1  0  0  0  0
 10 25  1  0  0  0  0
 10 26  1  0  0  0  0
 10 27  1  0  0  0  0
 11 28  1  0  0  0  0
 11 29  1  0  0  0  0
 11 30  1  0  0  0  0
 12 31  1  0  0  0  0
 12 32  1  0  0  0  0
 12 33  1  0  0  0  0
 13  4  1  0  0  0  0
 13 34  1  0  0  0  0
 13 35  1  0  0  0  0
 14 12  1  0  0  0  0
 14 15  1  0  0  0  0
 14 36  1  0  0  0  0
 14 37  1  0  0  0  0
 15 13  1  0  0  0  0
 15 38  1  0  0  0  0
 15 39  1  0  0  0  0
 16  5  1  0  0  0  0
 17 18  1  0  0  0  0
 17 40  1  0  0  0  0
 19 41  1  0  0  0  0
 19 42  1  0  0  0  0
 20  9  1  0  0  0  0
M  END
