5alm_ligand
 OpenBabel08222323353D

 43 45  0  0  1  0  0  0  0  0999 V2000
   13.0120   10.0570   19.5840 C   0  0  0  0  0  0  0  0  0  0  0  0
   14.3350   10.9620   21.3580 C   0  0  0  0  0  0  0  0  0  0  0  0
   11.9190    9.9910   20.4180 C   0  0  0  0  0  0  0  0  0  0  0  0
   13.2390   10.8950   22.1950 C   0  0  0  0  0  0  0  0  0  0  0  0
   14.2170   10.5620   20.0430 C   0  0  0  0  0  0  0  0  0  0  0  0
   12.0320   10.4120   21.7250 C   0  0  0  0  0  0  0  0  0  0  0  0
   18.9030   10.9850   13.1130 C   0  0  0  0  0  0  0  0  0  0  0  0
   17.4660   10.7140   12.8010 C   0  0  0  0  0  0  0  0  0  0  0  0
   14.4620   10.7880   16.9320 C   0  0  0  0  0  0  0  0  0  0  0  0
   15.3820   10.6340   15.7550 C   0  0  0  0  0  0  0  0  0  0  0  0
   16.6690   11.4930   17.4580 C   0  0  0  0  0  0  0  0  0  0  0  0
   18.0110   10.3920   14.1640 C   0  0  0  0  0  0  0  0  0  0  0  0
   15.2680   11.4480   18.0330 C   0  0  1  0  0  0  0  0  0  0  0  0
   14.7610   12.8560   18.3050 C   0  0  0  0  0  0  0  0  0  0  0  0
   10.9890    8.6900   23.4810 C   0  0  0  0  0  0  0  0  0  0  0  0
   17.6170   11.2590   15.3150 C   0  0  0  0  0  0  0  0  0  0  0  0
   16.7370   10.6120   16.2890 N   0  3  2  0  0  0  0  0  0  0  0  0
   15.3570   10.6380   19.2310 O   0  0  0  0  0  0  0  0  0  0  0  0
   10.6130   10.3100   22.7740 S   0  0  0  0  0  0  0  0  0  0  0  0
   12.9289    9.7110   18.5601 H   0  0  0  0  0  0  0  0  0  0  0  0
   15.2843   11.3274   21.7326 H   0  0  0  0  0  0  0  0  0  0  0  0
   10.9740    9.6097   20.0483 H   0  0  0  0  0  0  0  0  0  0  0  0
   13.3253   11.2224   23.2248 H   0  0  0  0  0  0  0  0  0  0  0  0
   19.2573   12.0215   13.2141 H   0  0  0  0  0  0  0  0  0  0  0  0
   19.6906   10.3717   12.6510 H   0  0  0  0  0  0  0  0  0  0  0  0
   17.1972    9.9012   12.1103 H   0  0  0  0  0  0  0  0  0  0  0  0
   16.7638   11.5510   12.6734 H   0  0  0  0  0  0  0  0  0  0  0  0
   14.1031    9.8026   17.2639 H   0  0  0  0  0  0  0  0  0  0  0  0
   13.6027   11.4191   16.6612 H   0  0  0  0  0  0  0  0  0  0  0  0
   15.2598   11.4809   15.0638 H   0  0  0  0  0  0  0  0  0  0  0  0
   15.1671    9.6943   15.2252 H   0  0  0  0  0  0  0  0  0  0  0  0
   17.3895   11.1540   18.2169 H   0  0  0  0  0  0  0  0  0  0  0  0
   16.9106   12.5231   17.1572 H   0  0  0  0  0  0  0  0  0  0  0  0
   18.1336    9.3486   14.4901 H   0  0  0  0  0  0  0  0  0  0  0  0
   13.7442   12.8055   18.7215 H   0  0  0  0  0  0  0  0  0  0  0  0
   14.7443   13.4276   17.3654 H   0  0  0  0  0  0  0  0  0  0  0  0
   15.4278   13.3532   19.0249 H   0  0  0  0  0  0  0  0  0  0  0  0
   10.2016    8.4105   24.1964 H   0  0  0  0  0  0  0  0  0  0  0  0
   11.9578    8.7324   24.0002 H   0  0  0  0  0  0  0  0  0  0  0  0
   11.0364    7.9410   22.6768 H   0  0  0  0  0  0  0  0  0  0  0  0
   17.0976   12.1432   14.9171 H   0  0  0  0  0  0  0  0  0  0  0  0
   18.5326   11.5752   15.8362 H   0  0  0  0  0  0  0  0  0  0  0  0
   17.0481    9.6811   16.5186 H   0  0  0  0  0  0  0  0  0  0  0  0
  1  3  2  0  0  0  0
  1 20  1  0  0  0  0
  2  4  1  0  0  0  0
  2 21  1  0  0  0  0
  3  6  1  0  0  0  0
  3 22  1  0  0  0  0
  4  6  2  0  0  0  0
  4 23  1  0  0  0  0
  5  1  1  0  0  0  0
  5  2  2  0  0  0  0
  6 19  1  0  0  0  0
  7 24  1  0  0  0  0
  7 25  1  0  0  0  0
  8  7  1  0  0  0  0
  8 26  1  0  0  0  0
  8 27  1  0  0  0  0
  9 28  1  0  0  0  0
  9 29  1  0  0  0  0
 10  9  1  0  0  0  0
 10 30  1  0  0  0  0
 10 31  1  0  0  0  0
 11 13  1  0  0  0  0
 11 32  1  0  0  0  0
 11 33  1  0  0  0  0
 12  7  1  0  0  0  0
 12  8  1  0  0  0  0
 12 34  1  0  0  0  0
 13  9  1  0  0  0  0
 13 14  1  0  0  0  0
 13 18  1  1  0  0  0
 14 35  1  0  0  0  0
 14 36  1  0  0  0  0
 14 37  1  0  0  0  0
 15 38  1  0  0  0  0
 15 39  1  0  0  0  0
 15 40  1  0  0  0  0
 16 12  1  0  0  0  0
 16 17  1  0  0  0  0
 16 41  1  0  0  0  0
 16 42  1  0  0  0  0
 17 10  1  0  0  0  0
 17 11  1  0  0  0  0
 17 43  1  1  0  0  0
 18  5  1  0  0  0  0
 19 15  1  0  0  0  0
M  CHG  1  17   1
M  END
