5als_ligand
 OpenBabel08222323353D

 43 46  0  0  1  0  0  0  0  0999 V2000
   17.5990    9.4380   14.8840 C   0  0  0  0  0  0  0  0  0  0  0  0
   18.1770   11.8090   14.6940 C   0  0  0  0  0  0  0  0  0  0  0  0
   18.4400    9.0010   13.9030 C   0  0  0  0  0  0  0  0  0  0  0  0
   19.0820   11.5220   13.6570 C   0  0  0  0  0  0  0  0  0  0  0  0
   14.1300   11.9280   20.2900 C   0  0  0  0  0  0  0  0  0  0  0  0
   14.1410   13.2310   19.6320 C   0  0  0  0  0  0  0  0  0  0  0  0
   17.3820   10.8060   15.3470 C   0  0  0  0  0  0  0  0  0  0  0  0
   19.2180   10.0880   13.2520 C   0  0  0  0  0  0  0  0  0  0  0  0
   15.5290   11.1120   18.2490 C   0  0  0  0  0  0  0  0  0  0  0  0
   14.8480   10.7780   19.5850 C   0  0  0  0  0  0  0  0  0  0  0  0
   15.3950   12.4330   17.8350 C   0  0  0  0  0  0  0  0  0  0  0  0
   16.5700   11.1930   16.4040 C   0  0  0  0  0  0  0  0  0  0  0  0
   10.3070    8.5510   19.0380 C   0  0  0  0  0  0  0  0  0  0  0  0
   10.5550    8.5360   17.5510 C   0  0  0  0  0  0  0  0  0  0  0  0
   11.3270    9.3480   19.7850 C   0  0  0  0  0  0  0  0  0  0  0  0
   11.9540    8.7150   17.4370 C   0  0  0  0  0  0  0  0  0  0  0  0
   12.4330    9.2680   18.7840 C   0  0  2  0  0  0  0  0  0  0  0  0
   20.1720    9.7870   12.1620 C   0  0  0  0  0  0  0  0  0  0  0  0
   14.7310   13.5230   18.4330 N   0  0  0  0  0  0  0  0  0  0  0  0
   16.2830   10.4430   17.2780 N   0  0  0  0  0  0  0  0  0  0  0  0
   16.0620   12.3240   16.7350 N   0  0  0  0  0  0  0  0  0  0  0  0
   13.6400    8.5190   19.3590 N   0  0  0  0  0  0  0  0  0  0  0  0
   16.0720    8.4480   20.1820 O   0  0  0  0  0  0  0  0  0  0  0  0
   14.1760    9.1870   21.6080 O   0  0  0  0  0  0  0  0  0  0  0  0
   19.7780    9.6250   10.8930 F   0  0  0  0  0  0  0  0  0  0  0  0
   21.2900   10.4970   12.3110 F   0  0  0  0  0  0  0  0  0  0  0  0
   20.6210    8.6210   12.3210 F   0  0  0  0  0  0  0  0  0  0  0  0
   14.8450    9.1120   20.3820 S   0  0  0  0  0  0  0  0  0  0  0  0
   17.0173    8.6719   15.3839 H   0  0  0  0  0  0  0  0  0  0  0  0
   18.0739   12.8386   15.0171 H   0  0  0  0  0  0  0  0  0  0  0  0
   18.5326    7.9577   13.6238 H   0  0  0  0  0  0  0  0  0  0  0  0
   19.6553   12.3042   13.1728 H   0  0  0  0  0  0  0  0  0  0  0  0
   13.6319   11.7819   21.2416 H   0  0  0  0  0  0  0  0  0  0  0  0
   13.6343   14.0429   20.1411 H   0  0  0  0  0  0  0  0  0  0  0  0
   10.3289    7.5157   19.4089 H   0  0  0  0  0  0  0  0  0  0  0  0
    9.3143    8.9865   19.2248 H   0  0  0  0  0  0  0  0  0  0  0  0
    9.8266    8.4154   16.7505 H   0  0  0  0  0  0  0  0  0  0  0  0
   11.5989    8.8818   20.7435 H   0  0  0  0  0  0  0  0  0  0  0  0
   10.9991   10.3832   19.9607 H   0  0  0  0  0  0  0  0  0  0  0  0
   12.5693    8.5018   16.5641 H   0  0  0  0  0  0  0  0  0  0  0  0
   12.7657   10.2991   18.5941 H   0  0  0  0  0  0  0  0  0  0  0  0
   16.5490    9.4487   17.3162 H   0  0  0  0  0  0  0  0  0  0  0  0
   13.7245    7.5582   19.0951 H   0  0  0  0  0  0  0  0  0  0  0  0
  1  3  2  0  0  0  0
  1 29  1  0  0  0  0
  2  4  1  0  0  0  0
  2 30  1  0  0  0  0
  3  8  1  0  0  0  0
  3 31  1  0  0  0  0
  4  8  2  0  0  0  0
  4 32  1  0  0  0  0
  5  6  2  0  0  0  0
  5 33  1  0  0  0  0
  6 19  1  0  0  0  0
  6 34  1  0  0  0  0
  7  1  1  0  0  0  0
  7  2  2  0  0  0  0
  8 18  1  0  0  0  0
  9 11  1  0  0  0  0
  9 20  1  0  0  0  0
 10  5  1  0  0  0  0
 10  9  2  0  0  0  0
 11 19  2  0  0  0  0
 11 21  1  0  0  0  0
 12  7  1  0  0  0  0
 12 21  2  0  0  0  0
 13 35  1  0  0  0  0
 13 36  1  0  0  0  0
 14 13  1  0  0  0  0
 14 37  1  0  0  0  0
 15 13  1  0  0  0  0
 15 38  1  0  0  0  0
 15 39  1  0  0  0  0
 16 14  2  0  0  0  0
 16 40  1  0  0  0  0
 17 15  1  0  0  0  0
 17 16  1  0  0  0  0
 17 41  1  6  0  0  0
 18 25  1  0  0  0  0
 18 26  1  0  0  0  0
 18 27  1  0  0  0  0
 20 12  1  0  0  0  0
 20 42  1  0  0  0  0
 22 17  1  0  0  0  0
 22 28  1  0  0  0  0
 22 43  1  0  0  0  0
 28 10  1  0  0  0  0
 28 23  2  0  0  0  0
 28 24  2  0  0  0  0
M  END
