5aly_ligand
 OpenBabel08222323353D

 34 36  0  0  0  0  0  0  0  0999 V2000
   21.9500    8.1610   12.6130 C   0  0  0  0  0  0  0  0  0  0  0  0
   16.8280    8.8800   10.3260 C   0  0  0  0  0  0  0  0  0  0  0  0
   16.1620    9.7720   12.4560 C   0  0  0  0  0  0  0  0  0  0  0  0
   20.6290    8.6910   12.5530 C   0  0  0  0  0  0  0  0  0  0  0  0
   17.1490    9.2460   11.6230 C   0  0  0  0  0  0  0  0  0  0  0  0
   15.5180    9.0530    9.8940 C   0  0  0  0  0  0  0  0  0  0  0  0
   19.5730    8.3110   11.7650 C   0  0  0  0  0  0  0  0  0  0  0  0
   14.5840    9.5820   10.7350 C   0  0  0  0  0  0  0  0  0  0  0  0
   14.8650    9.9400   12.0290 C   0  0  0  0  0  0  0  0  0  0  0  0
   18.5090    9.1770   12.1200 C   0  0  0  0  0  0  0  0  0  0  0  0
   13.4480    9.2290    8.7920 C   0  0  0  0  0  0  0  0  0  0  0  0
   14.8730    8.7450    8.5540 C   0  0  0  0  0  0  0  0  0  0  0  0
   19.5490    7.2140   10.7720 C   0  0  0  0  0  0  0  0  0  0  0  0
   14.8310    7.2270    8.3240 C   0  0  0  0  0  0  0  0  0  0  0  0
   15.5300    9.4770    7.4010 C   0  0  0  0  0  0  0  0  0  0  0  0
   23.0250    7.7410   12.6740 N   0  0  0  0  0  0  0  0  0  0  0  0
   18.9070   10.0500   13.0550 N   0  0  0  0  0  0  0  0  0  0  0  0
   20.1970    9.7480   13.3050 N   0  0  0  0  0  0  0  0  0  0  0  0
   13.3530    9.6750   10.1100 N   0  0  0  0  0  0  0  0  0  0  0  0
   12.5780    9.2300    7.9190 O   0  0  0  0  0  0  0  0  0  0  0  0
   13.8820   10.4660   12.8060 F   0  0  0  0  0  0  0  0  0  0  0  0
   17.5807    8.4683    9.6634 H   0  0  0  0  0  0  0  0  0  0  0  0
   16.4241   10.0566   13.4686 H   0  0  0  0  0  0  0  0  0  0  0  0
   20.5377    6.7334   10.7327 H   0  0  0  0  0  0  0  0  0  0  0  0
   19.2998    7.6217    9.7812 H   0  0  0  0  0  0  0  0  0  0  0  0
   18.7918    6.4715   11.0641 H   0  0  0  0  0  0  0  0  0  0  0  0
   15.8511    6.8542    8.1496 H   0  0  0  0  0  0  0  0  0  0  0  0
   14.2050    7.0062    7.4469 H   0  0  0  0  0  0  0  0  0  0  0  0
   14.4069    6.7333    9.2108 H   0  0  0  0  0  0  0  0  0  0  0  0
   15.5375   10.5571    7.6091 H   0  0  0  0  0  0  0  0  0  0  0  0
   14.9660    9.2857    6.4762 H   0  0  0  0  0  0  0  0  0  0  0  0
   16.5633    9.1196    7.2809 H   0  0  0  0  0  0  0  0  0  0  0  0
   18.3455   10.7953   13.4912 H   0  0  0  0  0  0  0  0  0  0  0  0
   12.5163   10.0131   10.5410 H   0  0  0  0  0  0  0  0  0  0  0  0
  1 16  3  0  0  0  0
  2  6  1  0  0  0  0
  2 22  1  0  0  0  0
  3  9  2  0  0  0  0
  3 23  1  0  0  0  0
  4  1  1  0  0  0  0
  4 18  2  0  0  0  0
  5  2  2  0  0  0  0
  5  3  1  0  0  0  0
  6  8  2  0  0  0  0
  6 12  1  0  0  0  0
  7  4  1  0  0  0  0
  7 10  2  0  0  0  0
  7 13  1  0  0  0  0
  8  9  1  0  0  0  0
  8 19  1  0  0  0  0
  9 21  1  0  0  0  0
 10  5  1  0  0  0  0
 10 17  1  0  0  0  0
 11 19  1  0  0  0  0
 11 20  2  0  0  0  0
 12 11  1  0  0  0  0
 12 14  1  0  0  0  0
 12 15  1  0  0  0  0
 13 24  1  0  0  0  0
 13 25  1  0  0  0  0
 13 26  1  0  0  0  0
 14 27  1  0  0  0  0
 14 28  1  0  0  0  0
 14 29  1  0  0  0  0
 15 30  1  0  0  0  0
 15 31  1  0  0  0  0
 15 32  1  0  0  0  0
 17 18  1  0  0  0  0
 17 33  1  0  0  0  0
 19 34  1  0  0  0  0
M  END
