5am0_ligand
 OpenBabel08222323353D

 34 36  0  0  0  0  0  0  0  0999 V2000
   15.6750    9.7250    7.2220 C   0  0  0  0  0  0  0  0  0  0  0  0
   14.9710    8.9360    8.3010 C   0  0  0  0  0  0  0  0  0  0  0  0
   15.5430    9.1700    9.6550 C   0  0  0  0  0  0  0  0  0  0  0  0
   16.8200    8.9380   10.1340 C   0  0  0  0  0  0  0  0  0  0  0  0
   17.0900    9.2380   11.4590 C   0  0  0  0  0  0  0  0  0  0  0  0
   16.0880    9.7490   12.2810 C   0  0  0  0  0  0  0  0  0  0  0  0
   14.8170    9.9840   11.7890 C   0  0  0  0  0  0  0  0  0  0  0  0
   14.5740    9.6710   10.4770 C   0  0  0  0  0  0  0  0  0  0  0  0
   13.3800    9.8150    9.7850 N   0  0  0  0  0  0  0  0  0  0  0  0
   13.5470    9.4340    8.4710 C   0  0  0  0  0  0  0  0  0  0  0  0
   12.6970    9.5230    7.5950 O   0  0  0  0  0  0  0  0  0  0  0  0
   13.8340   10.4880   12.5620 F   0  0  0  0  0  0  0  0  0  0  0  0
   18.4200    8.9820   11.9660 C   0  0  0  0  0  0  0  0  0  0  0  0
   19.2510    7.9050   11.7290 C   0  0  0  0  0  0  0  0  0  0  0  0
   20.4550    8.0920   12.4570 C   0  0  0  0  0  0  0  0  0  0  0  0
   20.3400    9.2950   13.1150 C   0  0  0  0  0  0  0  0  0  0  0  0
   19.1130    9.8160   12.8110 N   0  0  0  0  0  0  0  0  0  0  0  0
   18.6640   11.1010   13.3110 C   0  0  0  0  0  0  0  0  0  0  0  0
   14.9820    7.4510    8.0330 C   0  0  0  0  0  0  0  0  0  0  0  0
   16.7045    9.3543    7.1093 H   0  0  0  0  0  0  0  0  0  0  0  0
   15.6968   10.7889    7.5007 H   0  0  0  0  0  0  0  0  0  0  0  0
   15.1364    9.6063    6.2703 H   0  0  0  0  0  0  0  0  0  0  0  0
   17.5901    8.5315    9.4884 H   0  0  0  0  0  0  0  0  0  0  0  0
   16.3075    9.9653   13.3203 H   0  0  0  0  0  0  0  0  0  0  0  0
   12.5239   10.1466   10.1815 H   0  0  0  0  0  0  0  0  0  0  0  0
   19.0209    7.0538   11.0899 H   0  0  0  0  0  0  0  0  0  0  0  0
   21.3063    7.4136   12.4887 H   0  0  0  0  0  0  0  0  0  0  0  0
   21.0900    9.7495   13.7606 H   0  0  0  0  0  0  0  0  0  0  0  0
   17.6510   11.3071   12.9349 H   0  0  0  0  0  0  0  0  0  0  0  0
   19.3503   11.8886   12.9666 H   0  0  0  0  0  0  0  0  0  0  0  0
   18.6500   11.0820   14.4107 H   0  0  0  0  0  0  0  0  0  0  0  0
   14.4582    6.9277    8.8465 H   0  0  0  0  0  0  0  0  0  0  0  0
   16.0217    7.0959    7.9783 H   0  0  0  0  0  0  0  0  0  0  0  0
   14.4741    7.2468    7.0789 H   0  0  0  0  0  0  0  0  0  0  0  0
  1  2  1  0  0  0  0
  1 20  1  0  0  0  0
  1 21  1  0  0  0  0
  1 22  1  0  0  0  0
  2  3  1  0  0  0  0
  2 10  1  0  0  0  0
  2 19  1  0  0  0  0
  3  4  2  0  0  0  0
  3  8  1  0  0  0  0
  4  5  1  0  0  0  0
  4 23  1  0  0  0  0
  5  6  2  0  0  0  0
  5 13  1  0  0  0  0
  6  7  1  0  0  0  0
  6 24  1  0  0  0  0
  7  8  2  0  0  0  0
  7 12  1  0  0  0  0
  8  9  1  0  0  0  0
  9 10  1  0  0  0  0
  9 25  1  0  0  0  0
 10 11  2  0  0  0  0
 13 14  2  0  0  0  0
 13 17  1  0  0  0  0
 14 15  1  0  0  0  0
 14 26  1  0  0  0  0
 15 16  2  0  0  0  0
 15 27  1  0  0  0  0
 16 17  1  0  0  0  0
 16 28  1  0  0  0  0
 17 18  1  0  0  0  0
 18 29  1  0  0  0  0
 18 30  1  0  0  0  0
 18 31  1  0  0  0  0
 19 32  1  0  0  0  0
 19 33  1  0  0  0  0
 19 34  1  0  0  0  0
M  END
