5am4_ligand
 OpenBabel08222323353D

 44 47  0  0  0  0  0  0  0  0999 V2000
  -15.8710  -10.0500   12.1920 C   0  0  0  0  0  0  0  0  0  0  0  0
  -14.6540  -10.2950   11.5850 C   0  0  0  0  0  0  0  0  0  0  0  0
  -14.5280   -9.9860   10.2460 C   0  0  0  0  0  0  0  0  0  0  0  0
  -15.5550   -9.4490    9.5170 C   0  0  0  0  0  0  0  0  0  0  0  0
  -16.7720   -9.2120   10.1310 C   0  0  0  0  0  0  0  0  0  0  0  0
  -16.9280   -9.5100   11.4760 C   0  0  0  0  0  0  0  0  0  0  0  0
  -18.2230   -9.2640   12.1860 C   0  0  0  0  0  0  0  0  0  0  0  0
  -18.5250   -7.7740   12.2450 C   0  0  0  0  0  0  0  0  0  0  0  0
  -19.8700   -7.4550   12.8870 C   0  0  0  0  0  0  0  0  0  0  0  0
  -21.0070   -8.3060   12.3490 C   0  0  0  0  0  0  0  0  0  0  0  0
  -20.6640   -9.7890   12.3170 C   0  0  0  0  0  0  0  0  0  0  0  0
  -19.3680  -10.0500   11.5640 C   0  0  0  0  0  0  0  0  0  0  0  0
  -15.1240   -9.2320    8.0970 C   0  0  0  0  0  0  0  0  0  0  0  0
  -15.1910   -7.7640    7.6910 C   0  0  0  0  0  0  0  0  0  0  0  0
  -16.5900   -7.3610    7.2360 C   0  0  0  0  0  0  0  0  0  0  0  0
  -17.0760   -8.2590    6.2350 O   0  0  0  0  0  0  0  0  0  0  0  0
  -17.2380   -9.5860    6.7450 C   0  0  0  0  0  0  0  0  0  0  0  0
  -15.8720  -10.1500    7.1300 C   0  0  0  0  0  0  0  0  0  0  0  0
  -13.6680   -9.6800    8.1650 C   0  0  0  0  0  0  0  0  0  0  0  0
  -12.8570   -9.6500    7.2450 O   0  0  0  0  0  0  0  0  0  0  0  0
  -13.4020  -10.1500    9.4380 N   0  0  0  0  0  0  0  0  0  0  0  0
  -16.0009  -10.2833   13.2426 H   0  0  0  0  0  0  0  0  0  0  0  0
  -13.8253  -10.7162   12.1425 H   0  0  0  0  0  0  0  0  0  0  0  0
  -17.5975   -8.7963    9.5646 H   0  0  0  0  0  0  0  0  0  0  0  0
  -18.1066   -9.6197   13.2204 H   0  0  0  0  0  0  0  0  0  0  0  0
  -18.5253   -7.3772   11.2191 H   0  0  0  0  0  0  0  0  0  0  0  0
  -17.7340   -7.2805   12.8288 H   0  0  0  0  0  0  0  0  0  0  0  0
  -20.1055   -6.3973   12.6980 H   0  0  0  0  0  0  0  0  0  0  0  0
  -19.7890   -7.6247   13.9708 H   0  0  0  0  0  0  0  0  0  0  0  0
  -21.2403   -7.9763   11.3258 H   0  0  0  0  0  0  0  0  0  0  0  0
  -21.8888   -8.1622   12.9906 H   0  0  0  0  0  0  0  0  0  0  0  0
  -21.4807  -10.3333   11.8204 H   0  0  0  0  0  0  0  0  0  0  0  0
  -20.5558  -10.1524   13.3496 H   0  0  0  0  0  0  0  0  0  0  0  0
  -19.1348  -11.1242   11.6063 H   0  0  0  0  0  0  0  0  0  0  0  0
  -19.4906   -9.7424   10.5150 H   0  0  0  0  0  0  0  0  0  0  0  0
  -14.4853   -7.5912    6.8651 H   0  0  0  0  0  0  0  0  0  0  0  0
  -14.9054   -7.1435    8.5532 H   0  0  0  0  0  0  0  0  0  0  0  0
  -16.5551   -6.3429    6.8210 H   0  0  0  0  0  0  0  0  0  0  0  0
  -17.2703   -7.3816    8.1001 H   0  0  0  0  0  0  0  0  0  0  0  0
  -17.6940  -10.2231    5.9729 H   0  0  0  0  0  0  0  0  0  0  0  0
  -17.8885   -9.5618    7.6317 H   0  0  0  0  0  0  0  0  0  0  0  0
  -16.0148  -11.1297    7.6094 H   0  0  0  0  0  0  0  0  0  0  0  0
  -15.2688  -10.2723    6.2183 H   0  0  0  0  0  0  0  0  0  0  0  0
  -12.5337  -10.5475    9.7349 H   0  0  0  0  0  0  0  0  0  0  0  0
  1  2  2  0  0  0  0
  1  6  1  0  0  0  0
  1 22  1  0  0  0  0
  2  3  1  0  0  0  0
  2 23  1  0  0  0  0
  3  4  2  0  0  0  0
  3 21  1  0  0  0  0
  4  5  1  0  0  0  0
  4 13  1  0  0  0  0
  5  6  2  0  0  0  0
  5 24  1  0  0  0  0
  6  7  1  0  0  0  0
  7  8  1  0  0  0  0
  7 12  1  0  0  0  0
  7 25  1  0  0  0  0
  8  9  1  0  0  0  0
  8 26  1  0  0  0  0
  8 27  1  0  0  0  0
  9 10  1  0  0  0  0
  9 28  1  0  0  0  0
  9 29  1  0  0  0  0
 10 11  1  0  0  0  0
 10 30  1  0  0  0  0
 10 31  1  0  0  0  0
 11 12  1  0  0  0  0
 11 32  1  0  0  0  0
 11 33  1  0  0  0  0
 12 34  1  0  0  0  0
 12 35  1  0  0  0  0
 13 14  1  0  0  0  0
 13 18  1  0  0  0  0
 13 19  1  0  0  0  0
 14 15  1  0  0  0  0
 14 36  1  0  0  0  0
 14 37  1  0  0  0  0
 15 16  1  0  0  0  0
 15 38  1  0  0  0  0
 15 39  1  0  0  0  0
 16 17  1  0  0  0  0
 17 18  1  0  0  0  0
 17 40  1  0  0  0  0
 17 41  1  0  0  0  0
 18 42  1  0  0  0  0
 18 43  1  0  0  0  0
 19 20  2  0  0  0  0
 19 21  1  0  0  0  0
 21 44  1  0  0  0  0
M  END
