5aom_ligand
 OpenBabel08222323353D

 33 34  0  0  0  0  0  0  0  0999 V2000
   91.9560   91.8700  -45.3150 Cl  0  0  0  0  0  0  0  0  0  0  0  0
   91.5440   97.2050  -43.8860 C   0  0  0  0  0  0  0  0  0  0  0  0
   91.6880   96.3790  -42.7920 N   0  0  0  0  0  0  0  0  0  0  0  0
   91.3770   96.8330  -45.0460 O   0  0  0  0  0  0  0  0  0  0  0  0
   91.8510   94.9790  -42.8300 C   0  0  0  0  0  0  0  0  0  0  0  0
   91.2040  101.4610  -44.3570 N   0  3  0  0  0  0  0  0  0  0  0  0
   92.0940   95.1860  -40.4780 O   0  0  0  0  0  0  0  0  0  0  0  0
   91.8250   94.1930  -43.9890 C   0  0  0  0  0  0  0  0  0  0  0  0
   92.0730   94.3640  -41.5890 C   0  0  0  0  0  0  0  0  0  0  0  0
   91.4930   98.6960  -43.5720 C   0  0  0  0  0  0  0  0  0  0  0  0
   92.2660   92.9920  -41.4830 C   0  0  0  0  0  0  0  0  0  0  0  0
   92.0140   92.8190  -43.8800 C   0  0  0  0  0  0  0  0  0  0  0  0
   92.2340   92.2080  -42.6450 C   0  0  0  0  0  0  0  0  0  0  0  0
   92.5470  100.9180  -44.0080 C   0  0  0  0  0  0  0  0  0  0  0  0
   90.0610  100.7620  -43.6920 C   0  0  0  0  0  0  0  0  0  0  0  0
   92.5770   99.4420  -44.3620 C   0  0  0  0  0  0  0  0  0  0  0  0
   90.1290   99.2640  -43.9690 C   0  0  0  0  0  0  0  0  0  0  0  0
   91.6758   96.8115  -41.8904 H   0  0  0  0  0  0  0  0  0  0  0  0
   91.0827  101.3840  -45.3547 H   0  0  0  0  0  0  0  0  0  0  0  0
   91.1778  102.4324  -44.0893 H   0  0  0  0  0  0  0  0  0  0  0  0
   92.2509   94.6624  -39.7010 H   0  0  0  0  0  0  0  0  0  0  0  0
   91.6598   94.6493  -44.9583 H   0  0  0  0  0  0  0  0  0  0  0  0
   91.6553   98.8452  -42.4943 H   0  0  0  0  0  0  0  0  0  0  0  0
   92.4388   92.5343  -40.5157 H   0  0  0  0  0  0  0  0  0  0  0  0
   92.3791   91.1355  -42.5844 H   0  0  0  0  0  0  0  0  0  0  0  0
   92.7300  101.0449  -42.9308 H   0  0  0  0  0  0  0  0  0  0  0  0
   93.3224  101.4518  -44.5771 H   0  0  0  0  0  0  0  0  0  0  0  0
   89.1135  101.1614  -44.0828 H   0  0  0  0  0  0  0  0  0  0  0  0
   90.1115  100.9337  -42.6067 H   0  0  0  0  0  0  0  0  0  0  0  0
   92.3920   99.3211  -45.4396 H   0  0  0  0  0  0  0  0  0  0  0  0
   93.5638   99.0261  -44.1104 H   0  0  0  0  0  0  0  0  0  0  0  0
   89.3446   98.7549  -43.3898 H   0  0  0  0  0  0  0  0  0  0  0  0
   89.9645   99.0886  -45.0424 H   0  0  0  0  0  0  0  0  0  0  0  0
  2  3  1  0  0  0  0
  2  4  2  0  0  0  0
  3  5  1  0  0  0  0
  3 18  1  0  0  0  0
  5  8  2  0  0  0  0
  5  9  1  0  0  0  0
  6 15  1  0  0  0  0
  6 19  1  0  0  0  0
  6 20  1  0  0  0  0
  7 21  1  0  0  0  0
  8 12  1  0  0  0  0
  8 22  1  0  0  0  0
  9  7  1  0  0  0  0
  9 11  2  0  0  0  0
 10  2  1  0  0  0  0
 10 17  1  0  0  0  0
 10 23  1  0  0  0  0
 11 13  1  0  0  0  0
 11 24  1  0  0  0  0
 12  1  1  0  0  0  0
 12 13  2  0  0  0  0
 13 25  1  0  0  0  0
 14  6  1  0  0  0  0
 14 16  1  0  0  0  0
 14 26  1  0  0  0  0
 14 27  1  0  0  0  0
 15 17  1  0  0  0  0
 15 28  1  0  0  0  0
 15 29  1  0  0  0  0
 16 10  1  0  0  0  0
 16 30  1  0  0  0  0
 16 31  1  0  0  0  0
 17 32  1  0  0  0  0
 17 33  1  0  0  0  0
M  CHG  1   6   1
M  END
