5ap1_ligand
 OpenBabel08222323353D

 57 60  0  0  0  0  0  0  0  0999 V2000
    0.2040  -20.2980  -53.0150 N   0  0  0  0  0  0  0  0  0  0  0  0
   -0.9240  -20.3070  -52.8030 C   0  0  0  0  0  0  0  0  0  0  0  0
   -2.3520  -20.3150  -52.5400 C   0  0  0  0  0  0  0  0  0  0  0  0
   -2.5940  -19.0980  -51.8330 O   0  0  0  0  0  0  0  0  0  0  0  0
   -2.0900  -18.9440  -50.5360 C   0  0  0  0  0  0  0  0  0  0  0  0
   -2.1480  -17.6760  -49.9790 C   0  0  0  0  0  0  0  0  0  0  0  0
   -2.6880  -16.5540  -50.6860 C   0  0  0  0  0  0  0  0  0  0  0  0
   -3.4830  -16.5460  -51.8240 C   0  0  0  0  0  0  0  0  0  0  0  0
   -2.5110  -15.1890  -50.3280 C   0  0  0  0  0  0  0  0  0  0  0  0
   -3.1600  -14.3830  -51.1950 N   0  0  0  0  0  0  0  0  0  0  0  0
   -3.7420  -15.2170  -52.0910 N   0  0  0  0  0  0  0  0  0  0  0  0
   -4.5450  -14.7130  -53.2010 C   0  0  0  0  0  0  0  0  0  0  0  0
   -1.5650  -20.0280  -49.8190 C   0  0  0  0  0  0  0  0  0  0  0  0
   -1.0940  -19.8370  -48.5350 C   0  0  0  0  0  0  0  0  0  0  0  0
   -1.1520  -18.5620  -47.9610 C   0  0  0  0  0  0  0  0  0  0  0  0
   -1.6700  -17.5080  -48.6790 C   0  0  0  0  0  0  0  0  0  0  0  0
   -0.5240  -20.8770  -47.7820 N   0  0  0  0  0  0  0  0  0  0  0  0
    0.2760  -20.8310  -46.6580 C   0  0  0  0  0  0  0  0  0  0  0  0
    0.6210  -19.6370  -46.1320 N   0  0  0  0  0  0  0  0  0  0  0  0
    1.4590  -19.6670  -45.0540 C   0  0  0  0  0  0  0  0  0  0  0  0
    1.9570  -20.8740  -44.5130 C   0  0  0  0  0  0  0  0  0  0  0  0
    2.8600  -20.8790  -43.4410 C   0  0  0  0  0  0  0  0  0  0  0  0
    3.6010  -20.8750  -42.5660 N   0  0  0  0  0  0  0  0  0  0  0  0
    1.5570  -22.0750  -45.0770 C   0  0  0  0  0  0  0  0  0  0  0  0
    0.7110  -22.0780  -46.1490 C   0  0  0  0  0  0  0  0  0  0  0  0
    1.7950  -18.4750  -44.4910 N   0  0  0  0  0  0  0  0  0  0  0  0
    1.3020  -17.1980  -44.9970 C   0  0  0  0  0  0  0  0  0  0  0  0
    2.3630  -16.1130  -44.7800 C   0  0  0  0  0  0  0  0  0  0  0  0
    1.8580  -14.7340  -45.1730 C   0  0  0  0  0  0  0  0  0  0  0  0
    0.5970  -14.3900  -44.3980 C   0  0  0  0  0  0  0  0  0  0  0  0
   -0.4800  -15.4270  -44.6730 C   0  0  0  0  0  0  0  0  0  0  0  0
    0.0090  -16.8110  -44.2690 C   0  0  0  0  0  0  0  0  0  0  0  0
   -2.6288  -21.1835  -51.9243 H   0  0  0  0  0  0  0  0  0  0  0  0
   -2.9203  -20.3369  -53.4815 H   0  0  0  0  0  0  0  0  0  0  0  0
   -3.8304  -17.4097  -52.3891 H   0  0  0  0  0  0  0  0  0  0  0  0
   -1.9323  -14.8421  -49.4732 H   0  0  0  0  0  0  0  0  0  0  0  0
   -4.5770  -13.6142  -53.1611 H   0  0  0  0  0  0  0  0  0  0  0  0
   -5.5671  -15.1126  -53.1253 H   0  0  0  0  0  0  0  0  0  0  0  0
   -4.0960  -15.0324  -54.1531 H   0  0  0  0  0  0  0  0  0  0  0  0
   -1.5288  -21.0127  -50.2708 H   0  0  0  0  0  0  0  0  0  0  0  0
   -0.7893  -18.4045  -46.9517 H   0  0  0  0  0  0  0  0  0  0  0  0
   -1.7074  -16.5248  -48.2240 H   0  0  0  0  0  0  0  0  0  0  0  0
   -0.7370  -21.8253  -48.1231 H   0  0  0  0  0  0  0  0  0  0  0  0
    1.9157  -23.0122  -44.6672 H   0  0  0  0  0  0  0  0  0  0  0  0
    0.3821  -23.0086  -46.5972 H   0  0  0  0  0  0  0  0  0  0  0  0
    2.4228  -18.4737  -43.6745 H   0  0  0  0  0  0  0  0  0  0  0  0
    1.0955  -17.2917  -46.0734 H   0  0  0  0  0  0  0  0  0  0  0  0
    3.2468  -16.3540  -45.3889 H   0  0  0  0  0  0  0  0  0  0  0  0
    2.6433  -16.0984  -43.7164 H   0  0  0  0  0  0  0  0  0  0  0  0
    1.6355  -14.7231  -46.2502 H   0  0  0  0  0  0  0  0  0  0  0  0
    2.6345  -13.9871  -44.9514 H   0  0  0  0  0  0  0  0  0  0  0  0
    0.2365  -13.3987  -44.7099 H   0  0  0  0  0  0  0  0  0  0  0  0
    0.8231  -14.3760  -43.3216 H   0  0  0  0  0  0  0  0  0  0  0  0
   -0.7206  -15.4255  -45.7463 H   0  0  0  0  0  0  0  0  0  0  0  0
   -1.3817  -15.1769  -44.0947 H   0  0  0  0  0  0  0  0  0  0  0  0
    0.1955  -16.8194  -43.1850 H   0  0  0  0  0  0  0  0  0  0  0  0
   -0.7702  -17.5482  -44.5127 H   0  0  0  0  0  0  0  0  0  0  0  0
  1  2  3  0  0  0  0
  2  3  1  0  0  0  0
  3  4  1  0  0  0  0
  3 33  1  0  0  0  0
  3 34  1  0  0  0  0
  4  5  1  0  0  0  0
  5  6  2  0  0  0  0
  5 13  1  0  0  0  0
  6  7  1  0  0  0  0
  6 16  1  0  0  0  0
  7  8  2  0  0  0  0
  7  9  1  0  0  0  0
  8 11  1  0  0  0  0
  8 35  1  0  0  0  0
  9 10  2  0  0  0  0
  9 36  1  0  0  0  0
 10 11  1  0  0  0  0
 11 12  1  0  0  0  0
 12 37  1  0  0  0  0
 12 38  1  0  0  0  0
 12 39  1  0  0  0  0
 13 14  2  0  0  0  0
 13 40  1  0  0  0  0
 14 15  1  0  0  0  0
 14 17  1  0  0  0  0
 15 16  2  0  0  0  0
 15 41  1  0  0  0  0
 16 42  1  0  0  0  0
 17 18  1  0  0  0  0
 17 43  1  0  0  0  0
 18 19  2  0  0  0  0
 18 25  1  0  0  0  0
 19 20  1  0  0  0  0
 20 21  2  0  0  0  0
 20 26  1  0  0  0  0
 21 22  1  0  0  0  0
 21 24  1  0  0  0  0
 22 23  3  0  0  0  0
 24 25  2  0  0  0  0
 24 44  1  0  0  0  0
 25 45  1  0  0  0  0
 26 27  1  0  0  0  0
 26 46  1  0  0  0  0
 27 28  1  0  0  0  0
 27 32  1  0  0  0  0
 27 47  1  0  0  0  0
 28 29  1  0  0  0  0
 28 48  1  0  0  0  0
 28 49  1  0  0  0  0
 29 30  1  0  0  0  0
 29 50  1  0  0  0  0
 29 51  1  0  0  0  0
 30 31  1  0  0  0  0
 30 52  1  0  0  0  0
 30 53  1  0  0  0  0
 31 32  1  0  0  0  0
 31 54  1  0  0  0  0
 31 55  1  0  0  0  0
 32 56  1  0  0  0  0
 32 57  1  0  0  0  0
M  END
