5ap3_ligand
 OpenBabel08222323353D

 66 70  0  0  1  0  0  0  0  0999 V2000
   -3.0650   39.5220  129.3510 O   0  0  0  0  0  0  0  0  0  0  0  0
   -2.3080   40.4660  129.3470 C   0  0  0  0  0  0  0  0  0  0  0  0
   -1.9110   41.1870  130.4890 N   0  0  0  0  0  0  0  0  0  0  0  0
   -2.3620   40.8790  131.8320 C   0  0  0  0  0  0  0  0  0  0  0  0
   -1.0480   42.2130  130.0950 C   0  0  0  0  0  0  0  0  0  0  0  0
   -0.3680   43.2140  130.7560 C   0  0  0  0  0  0  0  0  0  0  0  0
    0.3900   44.0940  130.0840 N   0  0  0  0  0  0  0  0  0  0  0  0
   -1.6750   41.0600  128.2250 N   0  0  0  0  0  0  0  0  0  0  0  0
   -1.8050   40.6070  126.8370 C   0  0  0  0  0  0  0  0  0  0  0  0
   -0.4420   40.2700  126.2100 C   0  0  0  0  0  0  0  0  0  0  0  0
   -0.5470   40.6250  124.7280 C   0  0  0  0  0  0  0  0  0  0  0  0
   -1.8160   41.4540  124.5440 C   0  0  0  0  0  0  0  0  0  0  0  0
   -2.3780   41.7050  125.9370 C   0  0  0  0  0  0  0  0  0  0  0  0
   -0.9050   42.1370  128.6760 C   0  0  0  0  0  0  0  0  0  0  0  0
   -0.1650   42.9830  127.9300 N   0  0  0  0  0  0  0  0  0  0  0  0
    0.4470   43.9480  128.7050 C   0  0  0  0  0  0  0  0  0  0  0  0
    1.1940   44.9380  128.0890 N   0  0  0  0  0  0  0  0  0  0  0  0
    1.4340   45.0940  126.7110 C   0  0  0  0  0  0  0  0  0  0  0  0
    1.5440   46.3340  126.0930 C   0  0  0  0  0  0  0  0  0  0  0  0
    1.4370   47.4750  126.8380 O   0  0  0  0  0  0  0  0  0  0  0  0
    0.4280   48.3440  126.3790 C   0  0  0  0  0  0  0  0  0  0  0  0
    1.7750   46.4480  124.7240 C   0  0  0  0  0  0  0  0  0  0  0  0
    1.9010   45.2920  123.9800 C   0  0  0  0  0  0  0  0  0  0  0  0
    1.7910   44.0340  124.5710 C   0  0  0  0  0  0  0  0  0  0  0  0
    1.5600   43.9410  125.9290 C   0  0  0  0  0  0  0  0  0  0  0  0
    2.1600   45.3210  122.6400 O   0  0  0  0  0  0  0  0  0  0  0  0
    1.0310   45.2430  121.8000 C   0  0  2  0  0  0  0  0  0  0  0  0
    1.3950   44.4680  120.5290 C   0  0  0  0  0  0  0  0  0  0  0  0
    0.1780   44.4750  119.5900 C   0  0  0  0  0  0  0  0  0  0  0  0
   -0.3210   45.8340  119.2440 N   0  3  1  0  0  0  0  0  0  0  0  0
   -1.5510   45.7720  118.4160 C   0  0  0  0  0  0  0  0  0  0  0  0
   -0.5220   46.6500  120.4690 C   0  0  0  0  0  0  0  0  0  0  0  0
    0.6840   46.6840  121.4230 C   0  0  0  0  0  0  0  0  0  0  0  0
   -3.0359   40.0101  131.8022 H   0  0  0  0  0  0  0  0  0  0  0  0
   -2.8987   41.7452  132.2463 H   0  0  0  0  0  0  0  0  0  0  0  0
   -1.4937   40.6479  132.4665 H   0  0  0  0  0  0  0  0  0  0  0  0
   -0.4469   43.2912  131.8344 H   0  0  0  0  0  0  0  0  0  0  0  0
   -2.4581   39.7221  126.8163 H   0  0  0  0  0  0  0  0  0  0  0  0
   -0.2231   39.1987  126.3295 H   0  0  0  0  0  0  0  0  0  0  0  0
    0.3527   40.8621  126.6872 H   0  0  0  0  0  0  0  0  0  0  0  0
   -0.6074   39.7069  124.1251 H   0  0  0  0  0  0  0  0  0  0  0  0
    0.3318   41.2097  124.4186 H   0  0  0  0  0  0  0  0  0  0  0  0
   -2.5457   40.9008  123.9345 H   0  0  0  0  0  0  0  0  0  0  0  0
   -1.5775   42.4092  124.0533 H   0  0  0  0  0  0  0  0  0  0  0  0
   -2.0671   42.6957  126.3001 H   0  0  0  0  0  0  0  0  0  0  0  0
   -3.4764   41.6488  125.9201 H   0  0  0  0  0  0  0  0  0  0  0  0
    1.6225   45.6396  128.7095 H   0  0  0  0  0  0  0  0  0  0  0  0
    0.3950   49.2380  127.0190 H   0  0  0  0  0  0  0  0  0  0  0  0
   -0.5438   47.8300  126.4168 H   0  0  0  0  0  0  0  0  0  0  0  0
    0.6448   48.6427  125.3428 H   0  0  0  0  0  0  0  0  0  0  0  0
    1.8540   47.4216  124.2539 H   0  0  0  0  0  0  0  0  0  0  0  0
    1.8860   43.1371  123.9697 H   0  0  0  0  0  0  0  0  0  0  0  0
    1.4755   42.9653  126.3936 H   0  0  0  0  0  0  0  0  0  0  0  0
    0.1899   44.7571  122.3163 H   0  0  0  0  0  0  0  0  0  0  0  0
    1.6579   43.4319  120.7883 H   0  0  0  0  0  0  0  0  0  0  0  0
    2.2500   44.9499  120.0323 H   0  0  0  0  0  0  0  0  0  0  0  0
   -0.6378   43.9228  120.0793 H   0  0  0  0  0  0  0  0  0  0  0  0
    0.4593   43.9637  118.6576 H   0  0  0  0  0  0  0  0  0  0  0  0
    0.3902   46.2868  118.6916 H   0  0  0  0  0  0  0  0  0  0  0  0
   -1.8873   46.7929  118.1820 H   0  0  0  0  0  0  0  0  0  0  0  0
   -2.3404   45.2441  118.9710 H   0  0  0  0  0  0  0  0  0  0  0  0
   -1.3370   45.2332  117.4812 H   0  0  0  0  0  0  0  0  0  0  0  0
   -1.3817   46.2382  121.0179 H   0  0  0  0  0  0  0  0  0  0  0  0
   -0.7442   47.6822  120.1606 H   0  0  0  0  0  0  0  0  0  0  0  0
    1.5424   47.1557  120.9224 H   0  0  0  0  0  0  0  0  0  0  0  0
    0.4280   47.2550  122.3277 H   0  0  0  0  0  0  0  0  0  0  0  0
  1  2  2  0  0  0  0
  2  3  1  0  0  0  0
  2  8  1  0  0  0  0
  3  4  1  0  0  0  0
  3  5  1  0  0  0  0
  4 34  1  0  0  0  0
  4 35  1  0  0  0  0
  4 36  1  0  0  0  0
  5  6  2  0  0  0  0
  5 14  1  0  0  0  0
  6  7  1  0  0  0  0
  6 37  1  0  0  0  0
  7 16  2  0  0  0  0
  8  9  1  0  0  0  0
  8 14  1  0  0  0  0
  9 10  1  0  0  0  0
  9 13  1  0  0  0  0
  9 38  1  0  0  0  0
 10 11  1  0  0  0  0
 10 39  1  0  0  0  0
 10 40  1  0  0  0  0
 11 12  1  0  0  0  0
 11 41  1  0  0  0  0
 11 42  1  0  0  0  0
 12 13  1  0  0  0  0
 12 43  1  0  0  0  0
 12 44  1  0  0  0  0
 13 45  1  0  0  0  0
 13 46  1  0  0  0  0
 14 15  2  0  0  0  0
 15 16  1  0  0  0  0
 16 17  1  0  0  0  0
 17 18  1  0  0  0  0
 17 47  1  0  0  0  0
 18 19  2  0  0  0  0
 18 25  1  0  0  0  0
 19 20  1  0  0  0  0
 19 22  1  0  0  0  0
 20 21  1  0  0  0  0
 21 48  1  0  0  0  0
 21 49  1  0  0  0  0
 21 50  1  0  0  0  0
 22 23  2  0  0  0  0
 22 51  1  0  0  0  0
 23 24  1  0  0  0  0
 23 26  1  0  0  0  0
 24 25  2  0  0  0  0
 24 52  1  0  0  0  0
 25 53  1  0  0  0  0
 26 27  1  0  0  0  0
 27 28  1  0  0  0  0
 27 33  1  0  0  0  0
 27 54  1  1  0  0  0
 28 29  1  0  0  0  0
 28 55  1  0  0  0  0
 28 56  1  0  0  0  0
 29 30  1  0  0  0  0
 29 57  1  0  0  0  0
 29 58  1  0  0  0  0
 30 31  1  0  0  0  0
 30 32  1  0  0  0  0
 30 59  1  6  0  0  0
 31 60  1  0  0  0  0
 31 61  1  0  0  0  0
 31 62  1  0  0  0  0
 32 33  1  0  0  0  0
 32 63  1  0  0  0  0
 32 64  1  0  0  0  0
 33 65  1  0  0  0  0
 33 66  1  0  0  0  0
M  CHG  1  30   1
M  END
