5ap6_ligand
 OpenBabel08222323353D

 62 66  0  0  0  0  0  0  0  0999 V2000
  -37.8880  -15.4070  -14.7730 O   0  0  0  0  0  0  0  0  0  0  0  0
  -37.1970  -15.6690  -13.8230 C   0  0  0  0  0  0  0  0  0  0  0  0
  -36.5730  -14.7580  -13.0670 O   0  0  0  0  0  0  0  0  0  0  0  0
  -36.6910  -13.3560  -13.4840 C   0  0  0  0  0  0  0  0  0  0  0  0
  -35.3090  -12.8280  -13.6650 C   0  0  0  0  0  0  0  0  0  0  0  0
  -37.4590  -12.6400  -12.4310 C   0  0  0  0  0  0  0  0  0  0  0  0
  -36.9610  -16.9810  -13.3920 N   0  0  0  0  0  0  0  0  0  0  0  0
  -37.4620  -18.1350  -13.9860 C   0  0  0  0  0  0  0  0  0  0  0  0
  -38.3000  -18.2310  -15.1390 C   0  0  0  0  0  0  0  0  0  0  0  0
  -39.4160  -17.4930  -15.5640 C   0  0  0  0  0  0  0  0  0  0  0  0
  -39.8810  -17.9570  -16.7100 N   0  0  0  0  0  0  0  0  0  0  0  0
  -39.0580  -19.0090  -17.0350 N   0  0  0  0  0  0  0  0  0  0  0  0
  -39.2720  -19.7760  -18.2550 C   0  0  0  0  0  0  0  0  0  0  0  0
  -38.1060  -19.1910  -16.1130 C   0  0  0  0  0  0  0  0  0  0  0  0
  -37.0110  -19.2220  -13.3030 C   0  0  0  0  0  0  0  0  0  0  0  0
  -36.1870  -18.7650  -12.2270 C   0  0  0  0  0  0  0  0  0  0  0  0
  -36.1630  -17.3600  -12.2860 C   0  0  0  0  0  0  0  0  0  0  0  0
  -35.4360  -16.6160  -11.3650 C   0  0  0  0  0  0  0  0  0  0  0  0
  -34.7280  -17.3210  -10.3920 C   0  0  0  0  0  0  0  0  0  0  0  0
  -34.7310  -18.6520  -10.3130 N   0  0  0  0  0  0  0  0  0  0  0  0
  -35.4460  -19.3290  -11.2140 C   0  0  0  0  0  0  0  0  0  0  0  0
  -33.9460  -16.6950   -9.4430 N   0  0  0  0  0  0  0  0  0  0  0  0
  -33.6880  -15.3260   -9.2550 C   0  0  0  0  0  0  0  0  0  0  0  0
  -33.7010  -14.4530  -10.3320 C   0  0  0  0  0  0  0  0  0  0  0  0
  -33.4420  -13.1100  -10.1440 C   0  0  0  0  0  0  0  0  0  0  0  0
  -33.1630  -12.6100   -8.8780 C   0  0  0  0  0  0  0  0  0  0  0  0
  -33.1520  -13.4900   -7.8030 C   0  0  0  0  0  0  0  0  0  0  0  0
  -33.4110  -14.8340   -7.9870 C   0  0  0  0  0  0  0  0  0  0  0  0
  -32.8770  -11.1750   -8.6860 C   0  0  0  0  0  0  0  0  0  0  0  0
  -33.5470  -10.0890   -9.2570 C   0  0  0  0  0  0  0  0  0  0  0  0
  -32.9530   -8.9230   -8.8560 N   0  0  0  0  0  0  0  0  0  0  0  0
  -31.9580   -9.2750   -8.0680 C   0  0  0  0  0  0  0  0  0  0  0  0
  -31.0260   -8.3240   -7.4130 C   0  0  0  0  0  0  0  0  0  0  0  0
  -31.8460  -10.6380   -7.9060 N   0  0  0  0  0  0  0  0  0  0  0  0
  -30.8650  -11.3450   -7.0800 C   0  0  0  0  0  0  0  0  0  0  0  0
  -37.2334  -13.2847  -14.4383 H   0  0  0  0  0  0  0  0  0  0  0  0
  -35.3571  -11.7748  -13.9789 H   0  0  0  0  0  0  0  0  0  0  0  0
  -34.7894  -13.4168  -14.4353 H   0  0  0  0  0  0  0  0  0  0  0  0
  -34.7605  -12.9025  -12.7144 H   0  0  0  0  0  0  0  0  0  0  0  0
  -37.5671  -11.5819  -12.7116 H   0  0  0  0  0  0  0  0  0  0  0  0
  -36.9231  -12.7124  -11.4731 H   0  0  0  0  0  0  0  0  0  0  0  0
  -38.4549  -13.0960  -12.3294 H   0  0  0  0  0  0  0  0  0  0  0  0
  -39.8416  -16.6503  -15.0212 H   0  0  0  0  0  0  0  0  0  0  0  0
  -38.5115  -20.5673  -18.3287 H   0  0  0  0  0  0  0  0  0  0  0  0
  -39.1927  -19.1090  -19.1261 H   0  0  0  0  0  0  0  0  0  0  0  0
  -40.2733  -20.2308  -18.2313 H   0  0  0  0  0  0  0  0  0  0  0  0
  -37.3265  -19.9513  -16.1276 H   0  0  0  0  0  0  0  0  0  0  0  0
  -37.2384  -20.2613  -13.5357 H   0  0  0  0  0  0  0  0  0  0  0  0
  -35.4198  -15.5327  -11.4012 H   0  0  0  0  0  0  0  0  0  0  0  0
  -35.4427  -20.4106  -11.1419 H   0  0  0  0  0  0  0  0  0  0  0  0
  -33.4823  -17.3245   -8.7725 H   0  0  0  0  0  0  0  0  0  0  0  0
  -33.9156  -14.8268  -11.3266 H   0  0  0  0  0  0  0  0  0  0  0  0
  -33.4565  -12.4376  -10.9942 H   0  0  0  0  0  0  0  0  0  0  0  0
  -32.9376  -13.1172   -6.8079 H   0  0  0  0  0  0  0  0  0  0  0  0
  -33.3979  -15.5075   -7.1377 H   0  0  0  0  0  0  0  0  0  0  0  0
  -34.4088  -10.1599   -9.9189 H   0  0  0  0  0  0  0  0  0  0  0  0
  -31.3038   -7.2943   -7.6822 H   0  0  0  0  0  0  0  0  0  0  0  0
  -29.9987   -8.5266   -7.7499 H   0  0  0  0  0  0  0  0  0  0  0  0
  -31.0848   -8.4461   -6.3214 H   0  0  0  0  0  0  0  0  0  0  0  0
  -31.0333  -12.4292   -7.1581 H   0  0  0  0  0  0  0  0  0  0  0  0
  -30.9747  -11.0316   -6.0313 H   0  0  0  0  0  0  0  0  0  0  0  0
  -29.8501  -11.1054   -7.4301 H   0  0  0  0  0  0  0  0  0  0  0  0
  1  2  2  0  0  0  0
  2  3  1  0  0  0  0
  2  7  1  0  0  0  0
  3  4  1  0  0  0  0
  4  5  1  0  0  0  0
  4  6  1  0  0  0  0
  4 36  1  0  0  0  0
  5 37  1  0  0  0  0
  5 38  1  0  0  0  0
  5 39  1  0  0  0  0
  6 40  1  0  0  0  0
  6 41  1  0  0  0  0
  6 42  1  0  0  0  0
  7  8  1  0  0  0  0
  7 17  1  0  0  0  0
  8  9  1  0  0  0  0
  8 15  2  0  0  0  0
  9 10  1  0  0  0  0
  9 14  2  0  0  0  0
 10 11  2  0  0  0  0
 10 43  1  0  0  0  0
 11 12  1  0  0  0  0
 12 13  1  0  0  0  0
 12 14  1  0  0  0  0
 13 44  1  0  0  0  0
 13 45  1  0  0  0  0
 13 46  1  0  0  0  0
 14 47  1  0  0  0  0
 15 16  1  0  0  0  0
 15 48  1  0  0  0  0
 16 17  2  0  0  0  0
 16 21  1  0  0  0  0
 17 18  1  0  0  0  0
 18 19  2  0  0  0  0
 18 49  1  0  0  0  0
 19 20  1  0  0  0  0
 19 22  1  0  0  0  0
 20 21  2  0  0  0  0
 21 50  1  0  0  0  0
 22 23  1  0  0  0  0
 22 51  1  0  0  0  0
 23 24  2  0  0  0  0
 23 28  1  0  0  0  0
 24 25  1  0  0  0  0
 24 52  1  0  0  0  0
 25 26  2  0  0  0  0
 25 53  1  0  0  0  0
 26 27  1  0  0  0  0
 26 29  1  0  0  0  0
 27 28  2  0  0  0  0
 27 54  1  0  0  0  0
 28 55  1  0  0  0  0
 29 30  2  0  0  0  0
 29 34  1  0  0  0  0
 30 31  1  0  0  0  0
 30 56  1  0  0  0  0
 31 32  2  0  0  0  0
 32 33  1  0  0  0  0
 32 34  1  0  0  0  0
 33 57  1  0  0  0  0
 33 58  1  0  0  0  0
 33 59  1  0  0  0  0
 34 35  1  0  0  0  0
 35 60  1  0  0  0  0
 35 61  1  0  0  0  0
 35 62  1  0  0  0  0
M  END
