5apr_ligand
 OpenBabel08222323353D

107109  0  0  1  0  0  0  0  0999 V2000
   37.2540   72.3440  102.0190 N   0  3  0  0  0  0  0  0  0  0  0  0
   37.5550   71.0520  101.3940 C   0  0  2  0  0  0  0  0  0  0  0  0
   38.7290   70.3720  102.0830 C   0  0  0  0  0  0  0  0  0  0  0  0
   39.6710   71.0540  102.5440 O   0  0  0  0  0  0  0  0  0  0  0  0
   37.7740   71.4190   99.9290 C   0  0  0  0  0  0  0  0  0  0  0  0
   37.5010   72.8660   99.7250 C   0  0  0  0  0  0  0  0  0  0  0  0
   37.4700   73.4840  101.1120 C   0  0  0  0  0  0  0  0  0  0  0  0
   38.7150   69.0470  102.1650 N   0  0  0  0  0  0  0  0  0  0  0  0
   39.7790   68.2350  102.7810 C   0  0  2  0  0  0  0  0  0  0  0  0
   40.6510   67.5130  101.7640 C   0  0  0  0  0  0  0  0  0  0  0  0
   40.2240   67.1610  100.6570 O   0  0  0  0  0  0  0  0  0  0  0  0
   39.1980   67.2010  103.7730 C   0  0  0  0  0  0  0  0  0  0  0  0
   38.8180   67.8360  105.0840 C   0  0  0  0  0  0  0  0  0  0  0  0
   39.8080   68.1680  106.0170 C   0  0  0  0  0  0  0  0  0  0  0  0
   37.4950   68.1180  105.3750 C   0  0  0  0  0  0  0  0  0  0  0  0
   39.4720   68.7740  107.2250 C   0  0  0  0  0  0  0  0  0  0  0  0
   37.1310   68.7290  106.5770 C   0  0  0  0  0  0  0  0  0  0  0  0
   38.1290   69.0560  107.5070 C   0  0  0  0  0  0  0  0  0  0  0  0
   41.9030   67.2330  102.1020 N   0  0  0  0  0  0  0  0  0  0  0  0
   42.7440   66.4800  101.1350 C   0  0  2  0  0  0  0  0  0  0  0  0
   43.7870   65.7310  101.9890 C   0  0  0  0  0  0  0  0  0  0  0  0
   44.8680   66.2540  102.2690 O   0  0  0  0  0  0  0  0  0  0  0  0
   43.2690   67.2700   99.9670 C   0  0  0  0  0  0  0  0  0  0  0  0
   43.9200   66.2070   98.6290 S   0  0  0  0  0  0  0  0  0  0  0  0
   43.3300   64.5490  102.3590 N   0  0  0  0  0  0  0  0  0  0  0  0
   43.9210   63.5140  103.1770 C   0  0  1  0  0  0  0  0  0  0  0  0
   43.3850   63.5540  104.5890 C   0  0  0  0  0  0  0  0  0  0  0  0
   42.8780   64.9380  105.0710 C   0  0  0  0  0  0  0  0  0  0  0  0
   41.7430   64.8700  106.1190 C   0  0  0  0  0  0  0  0  0  0  0  0
   44.0440   65.7060  105.7490 C   0  0  0  0  0  0  0  0  0  0  0  0
   44.2940   62.2080  102.4780 C   0  0  1  0  0  0  0  0  0  0  0  0
   43.1140   61.5250  102.0020 O   0  0  0  0  0  0  0  0  0  0  0  0
   45.2250   62.3060  101.2740 C   0  0  0  0  0  0  0  0  0  0  0  0
   46.6270   62.6440  101.7960 C   0  0  0  0  0  0  0  0  0  0  0  0
   46.8870   63.8050  102.0020 O   0  0  0  0  0  0  0  0  0  0  0  0
   47.4500   61.6020  101.7350 N   0  0  0  0  0  0  0  0  0  0  0  0
   48.9070   61.5880  101.8500 C   0  0  2  0  0  0  0  0  0  0  0  0
   49.5850   62.4250  100.7520 C   0  0  0  0  0  0  0  0  0  0  0  0
   50.3880   63.3290  101.0150 O   0  0  0  0  0  0  0  0  0  0  0  0
   49.4180   60.1510  101.8840 C   0  0  0  0  0  0  0  0  0  0  0  0
   50.0260   59.5220  103.1130 C   0  0  0  0  0  0  0  0  0  0  0  0
   51.1000   58.5090  102.6790 C   0  0  0  0  0  0  0  0  0  0  0  0
   50.7010   60.5300  104.0440 C   0  0  0  0  0  0  0  0  0  0  0  0
   49.2030   62.0860   99.5390 N   0  0  0  0  0  0  0  0  0  0  0  0
   49.7080   62.7550   98.3260 C   0  0  0  0  0  0  0  0  0  0  0  0
   48.4720   63.1830   97.5260 C   0  0  0  0  0  0  0  0  0  0  0  0
   47.7280   62.3670   96.9700 O   0  0  0  0  0  0  0  0  0  0  0  0
   48.3130   64.4940   97.5350 N   0  0  0  0  0  0  0  0  0  0  0  0
   47.1800   65.1100   96.8420 C   0  0  0  0  0  0  0  0  0  0  0  0
   46.7380   66.3670   97.5730 C   0  0  0  0  0  0  0  0  0  0  0  0
   45.9000   66.0760   99.1280 S   0  0  0  0  0  0  0  0  0  0  0  0
   37.8483   72.4575  102.8252 H   0  0  0  0  0  0  0  0  0  0  0  0
   36.2890   72.3433  102.3103 H   0  0  0  0  0  0  0  0  0  0  0  0
   36.6868   70.3812  101.4732 H   0  0  0  0  0  0  0  0  0  0  0  0
   37.0940   70.8270   99.2988 H   0  0  0  0  0  0  0  0  0  0  0  0
   38.8155   71.2012   99.6499 H   0  0  0  0  0  0  0  0  0  0  0  0
   36.5325   73.0054   99.2225 H   0  0  0  0  0  0  0  0  0  0  0  0
   38.2974   73.3239   99.1200 H   0  0  0  0  0  0  0  0  0  0  0  0
   36.6472   74.2091  101.1963 H   0  0  0  0  0  0  0  0  0  0  0  0
   38.4238   73.9839  101.3363 H   0  0  0  0  0  0  0  0  0  0  0  0
   37.9265   68.5660  101.7816 H   0  0  0  0  0  0  0  0  0  0  0  0
   40.4258   68.9222  103.3462 H   0  0  0  0  0  0  0  0  0  0  0  0
   39.9533   66.4234  103.9598 H   0  0  0  0  0  0  0  0  0  0  0  0
   38.3030   66.7432  103.3266 H   0  0  0  0  0  0  0  0  0  0  0  0
   40.8469   67.9510  105.7966 H   0  0  0  0  0  0  0  0  0  0  0  0
   36.7260   67.8596  104.6560 H   0  0  0  0  0  0  0  0  0  0  0  0
   40.2446   69.0259  107.9424 H   0  0  0  0  0  0  0  0  0  0  0  0
   36.0906   68.9477  106.7886 H   0  0  0  0  0  0  0  0  0  0  0  0
   37.8606   69.5277  108.4454 H   0  0  0  0  0  0  0  0  0  0  0  0
   42.2718   67.5215  102.9856 H   0  0  0  0  0  0  0  0  0  0  0  0
   42.0981   65.7126  100.6835 H   0  0  0  0  0  0  0  0  0  0  0  0
   44.0787   67.9250  100.3210 H   0  0  0  0  0  0  0  0  0  0  0  0
   42.4512   67.8840   99.5618 H   0  0  0  0  0  0  0  0  0  0  0  0
   42.4169   64.3321  102.0136 H   0  0  0  0  0  0  0  0  0  0  0  0
   44.9304   63.9192  103.3407 H   0  0  0  0  0  0  0  0  0  0  0  0
   44.1900   63.2332  105.2665 H   0  0  0  0  0  0  0  0  0  0  0  0
   42.5468   62.8446  104.6537 H   0  0  0  0  0  0  0  0  0  0  0  0
   42.5203   65.4983  104.1946 H   0  0  0  0  0  0  0  0  0  0  0  0
   41.4455   65.8899  106.4039 H   0  0  0  0  0  0  0  0  0  0  0  0
   42.0975   64.3294  107.0090 H   0  0  0  0  0  0  0  0  0  0  0  0
   40.8786   64.3424  105.6896 H   0  0  0  0  0  0  0  0  0  0  0  0
   44.8870   65.7869  105.0470 H   0  0  0  0  0  0  0  0  0  0  0  0
   44.3672   65.1621  106.6488 H   0  0  0  0  0  0  0  0  0  0  0  0
   43.7043   66.7133  106.0316 H   0  0  0  0  0  0  0  0  0  0  0  0
   44.7899   61.5786  103.2316 H   0  0  0  0  0  0  0  0  0  0  0  0
   42.7200   62.0283  101.2992 H   0  0  0  0  0  0  0  0  0  0  0  0
   44.8770   63.0981  100.5946 H   0  0  0  0  0  0  0  0  0  0  0  0
   45.2463   61.3459  100.7375 H   0  0  0  0  0  0  0  0  0  0  0  0
   47.0161   60.7125  101.5919 H   0  0  0  0  0  0  0  0  0  0  0  0
   49.1657   62.0517  102.8133 H   0  0  0  0  0  0  0  0  0  0  0  0
   50.1853   60.0840  101.0987 H   0  0  0  0  0  0  0  0  0  0  0  0
   48.5600   59.5182  101.6132 H   0  0  0  0  0  0  0  0  0  0  0  0
   49.2306   59.0038  103.6688 H   0  0  0  0  0  0  0  0  0  0  0  0
   51.5484   58.0457  103.5702 H   0  0  0  0  0  0  0  0  0  0  0  0
   51.8809   59.0268  102.1027 H   0  0  0  0  0  0  0  0  0  0  0  0
   50.6384   57.7304  102.0539 H   0  0  0  0  0  0  0  0  0  0  0  0
   49.9620   61.2737  104.3768 H   0  0  0  0  0  0  0  0  0  0  0  0
   51.5154   61.0376  103.5063 H   0  0  0  0  0  0  0  0  0  0  0  0
   51.1111   60.0039  104.9186 H   0  0  0  0  0  0  0  0  0  0  0  0
   48.5419   61.3428   99.4356 H   0  0  0  0  0  0  0  0  0  0  0  0
   50.3092   63.6350   98.5984 H   0  0  0  0  0  0  0  0  0  0  0  0
   50.3224   62.0598   97.7352 H   0  0  0  0  0  0  0  0  0  0  0  0
   48.9715   65.0704   98.0189 H   0  0  0  0  0  0  0  0  0  0  0  0
   46.3435   64.3965   96.8078 H   0  0  0  0  0  0  0  0  0  0  0  0
   47.4802   65.3725   95.8169 H   0  0  0  0  0  0  0  0  0  0  0  0
   46.0543   66.9231   96.9148 H   0  0  0  0  0  0  0  0  0  0  0  0
   47.6306   66.9775   97.7744 H   0  0  0  0  0  0  0  0  0  0  0  0
  1  7  1  0  0  0  0
  1 52  1  0  0  0  0
  1 53  1  0  0  0  0
  2  1  1  0  0  0  0
  2  5  1  0  0  0  0
  2 54  1  1  0  0  0
  3  2  1  0  0  0  0
  3  4  2  0  0  0  0
  5  6  1  0  0  0  0
  5 55  1  0  0  0  0
  5 56  1  0  0  0  0
  6  7  1  0  0  0  0
  6 57  1  0  0  0  0
  6 58  1  0  0  0  0
  7 59  1  0  0  0  0
  7 60  1  0  0  0  0
  8  3  1  0  0  0  0
  8 61  1  0  0  0  0
  9 12  1  0  0  0  0
  9  8  1  0  0  0  0
  9 62  1  1  0  0  0
 10  9  1  0  0  0  0
 10 11  2  0  0  0  0
 12 13  1  0  0  0  0
 12 63  1  0  0  0  0
 12 64  1  0  0  0  0
 13 15  2  0  0  0  0
 13 14  1  0  0  0  0
 14 16  2  0  0  0  0
 14 65  1  0  0  0  0
 15 17  1  0  0  0  0
 15 66  1  0  0  0  0
 16 18  1  0  0  0  0
 16 67  1  0  0  0  0
 17 18  2  0  0  0  0
 17 68  1  0  0  0  0
 18 69  1  0  0  0  0
 19 10  1  0  0  0  0
 19 70  1  0  0  0  0
 20 21  1  0  0  0  0
 20 19  1  0  0  0  0
 20 71  1  6  0  0  0
 21 22  2  0  0  0  0
 21 25  1  0  0  0  0
 23 20  1  0  0  0  0
 23 72  1  0  0  0  0
 23 73  1  0  0  0  0
 24 23  1  0  0  0  0
 25 26  1  0  0  0  0
 25 74  1  0  0  0  0
 26 31  1  0  0  0  0
 26 27  1  0  0  0  0
 26 75  1  1  0  0  0
 27 28  1  0  0  0  0
 27 76  1  0  0  0  0
 27 77  1  0  0  0  0
 28 30  1  0  0  0  0
 28 29  1  0  0  0  0
 28 78  1  0  0  0  0
 29 79  1  0  0  0  0
 29 80  1  0  0  0  0
 29 81  1  0  0  0  0
 30 82  1  0  0  0  0
 30 83  1  0  0  0  0
 30 84  1  0  0  0  0
 31 33  1  0  0  0  0
 31 32  1  0  0  0  0
 31 85  1  1  0  0  0
 32 86  1  0  0  0  0
 33 34  1  0  0  0  0
 33 87  1  0  0  0  0
 33 88  1  0  0  0  0
 34 35  2  0  0  0  0
 34 36  1  0  0  0  0
 36 37  1  0  0  0  0
 36 89  1  0  0  0  0
 37 38  1  0  0  0  0
 37 40  1  0  0  0  0
 37 90  1  1  0  0  0
 38 39  2  0  0  0  0
 38 44  1  0  0  0  0
 40 41  1  0  0  0  0
 40 91  1  0  0  0  0
 40 92  1  0  0  0  0
 41 43  1  0  0  0  0
 41 42  1  0  0  0  0
 41 93  1  0  0  0  0
 42 94  1  0  0  0  0
 42 95  1  0  0  0  0
 42 96  1  0  0  0  0
 43 97  1  0  0  0  0
 43 98  1  0  0  0  0
 43 99  1  0  0  0  0
 44 45  1  0  0  0  0
 44100  1  0  0  0  0
 45 46  1  0  0  0  0
 45101  1  0  0  0  0
 45102  1  0  0  0  0
 46 47  2  0  0  0  0
 46 48  1  0  0  0  0
 48103  1  0  0  0  0
 49 48  1  0  0  0  0
 49104  1  0  0  0  0
 49105  1  0  0  0  0
 50 49  1  0  0  0  0
 50106  1  0  0  0  0
 50107  1  0  0  0  0
 51 50  1  0  0  0  0
 51 24  1  0  0  0  0
M  CHG  1   1   1
M  END
