5ar8_ligand
 OpenBabel08222323353D

 72 77  0  0  0  0  0  0  0  0999 V2000
   38.8010  -43.8670   49.1640 C   0  0  0  0  0  0  0  0  0  0  0  0
   39.6560  -42.6340   50.1120 S   0  0  0  0  0  0  0  0  0  0  0  0
   40.8550  -43.2600   50.6390 O   0  0  0  0  0  0  0  0  0  0  0  0
   38.7330  -42.0310   51.0600 O   0  0  0  0  0  0  0  0  0  0  0  0
   40.1400  -41.4020   48.9280 C   0  0  0  0  0  0  0  0  0  0  0  0
   40.3720  -41.7920   47.6260 C   0  0  0  0  0  0  0  0  0  0  0  0
   40.7480  -40.8630   46.6820 C   0  0  0  0  0  0  0  0  0  0  0  0
   40.8850  -39.5500   47.0650 C   0  0  0  0  0  0  0  0  0  0  0  0
   40.6570  -39.1440   48.3640 C   0  0  0  0  0  0  0  0  0  0  0  0
   40.8400  -37.7720   48.5980 N   0  0  0  0  0  0  0  0  0  0  0  0
   40.6780  -37.0530   49.7470 C   0  0  0  0  0  0  0  0  0  0  0  0
   40.9720  -35.7430   49.6190 N   0  0  0  0  0  0  0  0  0  0  0  0
   40.8300  -34.9800   50.7130 C   0  0  0  0  0  0  0  0  0  0  0  0
   40.4160  -35.4830   51.9230 C   0  0  0  0  0  0  0  0  0  0  0  0
   40.1320  -36.8370   51.9520 C   0  0  0  0  0  0  0  0  0  0  0  0
   40.2560  -37.6420   50.8820 N   0  0  0  0  0  0  0  0  0  0  0  0
   39.7070  -37.5480   53.1590 C   0  0  0  0  0  0  0  0  0  0  0  0
   39.7530  -39.2630   53.0100 S   0  0  0  0  0  0  0  0  0  0  0  0
   39.2580  -39.4310   54.6440 C   0  0  0  0  0  0  0  0  0  0  0  0
   39.0590  -38.2870   55.2570 N   0  0  0  0  0  0  0  0  0  0  0  0
   39.3110  -37.2090   54.4390 C   0  0  0  0  0  0  0  0  0  0  0  0
   39.1190  -35.8960   55.0950 C   0  0  0  0  0  0  0  0  0  0  0  0
   38.4530  -34.8380   54.5170 C   0  0  0  0  0  0  0  0  0  0  0  0
   38.3230  -33.6590   55.2260 C   0  0  0  0  0  0  0  0  0  0  0  0
   38.8530  -33.5250   56.5050 C   0  0  0  0  0  0  0  0  0  0  0  0
   39.5230  -34.5880   57.0850 C   0  0  0  0  0  0  0  0  0  0  0  0
   40.1010  -34.5290   58.4060 N   0  0  0  0  0  0  0  0  0  0  0  0
   39.9220  -33.4150   59.5990 S   0  0  0  0  0  0  0  0  0  0  0  0
   38.4990  -33.2230   59.8090 O   0  0  0  0  0  0  0  0  0  0  0  0
   40.7000  -33.9090   60.7160 O   0  0  0  0  0  0  0  0  0  0  0  0
   40.7060  -31.8960   59.0700 C   0  0  0  0  0  0  0  0  0  0  0  0
   39.9610  -30.7330   58.8930 C   0  0  0  0  0  0  0  0  0  0  0  0
   38.6410  -30.7620   59.1230 F   0  0  0  0  0  0  0  0  0  0  0  0
   40.5420  -29.5460   58.4860 C   0  0  0  0  0  0  0  0  0  0  0  0
   41.9010  -29.4990   58.2450 C   0  0  0  0  0  0  0  0  0  0  0  0
   42.6700  -30.6350   58.4100 C   0  0  0  0  0  0  0  0  0  0  0  0
   42.0700  -31.8050   58.8160 C   0  0  0  0  0  0  0  0  0  0  0  0
   42.8170  -32.9030   58.9760 F   0  0  0  0  0  0  0  0  0  0  0  0
   39.6420  -35.7600   56.3670 C   0  0  0  0  0  0  0  0  0  0  0  0
   39.0920  -40.6510   55.2250 N   0  0  0  0  0  0  0  0  0  0  0  0
   39.2570  -40.6990   56.6970 C   0  0  0  0  0  0  0  0  0  0  0  0
   39.1890  -42.0860   57.3070 C   0  0  0  0  0  0  0  0  0  0  0  0
   39.8160  -43.1000   56.5210 O   0  0  0  0  0  0  0  0  0  0  0  0
   39.3230  -43.0860   55.1930 C   0  0  0  0  0  0  0  0  0  0  0  0
   39.7200  -41.7850   54.5580 C   0  0  0  0  0  0  0  0  0  0  0  0
   40.2800  -40.0770   49.3090 C   0  0  0  0  0  0  0  0  0  0  0  0
   39.4969  -44.3251   48.4457 H   0  0  0  0  0  0  0  0  0  0  0  0
   37.9679  -43.3985   48.6195 H   0  0  0  0  0  0  0  0  0  0  0  0
   38.4084  -44.6416   49.8391 H   0  0  0  0  0  0  0  0  0  0  0  0
   40.2581  -42.8327   47.3449 H   0  0  0  0  0  0  0  0  0  0  0  0
   40.9325  -41.1613   45.6563 H   0  0  0  0  0  0  0  0  0  0  0  0
   41.1802  -38.8134   46.3265 H   0  0  0  0  0  0  0  0  0  0  0  0
   41.1421  -37.2253   47.7790 H   0  0  0  0  0  0  0  0  0  0  0  0
   41.0513  -33.9214   50.6395 H   0  0  0  0  0  0  0  0  0  0  0  0
   40.3178  -34.8565   52.8022 H   0  0  0  0  0  0  0  0  0  0  0  0
   38.0368  -34.9289   53.5202 H   0  0  0  0  0  0  0  0  0  0  0  0
   37.7984  -32.8233   54.7772 H   0  0  0  0  0  0  0  0  0  0  0  0
   38.7417  -32.5918   57.0452 H   0  0  0  0  0  0  0  0  0  0  0  0
   40.7093  -35.2901   58.6314 H   0  0  0  0  0  0  0  0  0  0  0  0
   39.9343  -28.6577   58.3569 H   0  0  0  0  0  0  0  0  0  0  0  0
   42.3639  -28.5719   57.9267 H   0  0  0  0  0  0  0  0  0  0  0  0
   43.7370  -30.6049   58.2212 H   0  0  0  0  0  0  0  0  0  0  0  0
   40.1615  -36.5998   56.8141 H   0  0  0  0  0  0  0  0  0  0  0  0
   38.4615  -40.0885   57.1492 H   0  0  0  0  0  0  0  0  0  0  0  0
   40.2373  -40.2656   56.9444 H   0  0  0  0  0  0  0  0  0  0  0  0
   38.1303  -42.3548   57.4367 H   0  0  0  0  0  0  0  0  0  0  0  0
   39.6827  -42.0559   58.2895 H   0  0  0  0  0  0  0  0  0  0  0  0
   38.2268  -43.1765   55.2019 H   0  0  0  0  0  0  0  0  0  0  0  0
   39.7555  -43.9239   54.6265 H   0  0  0  0  0  0  0  0  0  0  0  0
   40.8128  -41.6758   54.6202 H   0  0  0  0  0  0  0  0  0  0  0  0
   39.4118  -41.7940   53.5021 H   0  0  0  0  0  0  0  0  0  0  0  0
   40.0961  -39.7775   50.3344 H   0  0  0  0  0  0  0  0  0  0  0  0
  1  2  1  0  0  0  0
  1 47  1  0  0  0  0
  1 48  1  0  0  0  0
  1 49  1  0  0  0  0
  2  3  2  0  0  0  0
  2  4  2  0  0  0  0
  2  5  1  0  0  0  0
  5  6  2  0  0  0  0
  5 46  1  0  0  0  0
  6  7  1  0  0  0  0
  6 50  1  0  0  0  0
  7  8  2  0  0  0  0
  7 51  1  0  0  0  0
  8  9  1  0  0  0  0
  8 52  1  0  0  0  0
  9 10  1  0  0  0  0
  9 46  2  0  0  0  0
 10 11  1  0  0  0  0
 10 53  1  0  0  0  0
 11 12  2  0  0  0  0
 11 16  1  0  0  0  0
 12 13  1  0  0  0  0
 13 14  2  0  0  0  0
 13 54  1  0  0  0  0
 14 15  1  0  0  0  0
 14 55  1  0  0  0  0
 15 16  2  0  0  0  0
 15 17  1  0  0  0  0
 17 18  1  0  0  0  0
 17 21  2  0  0  0  0
 18 19  1  0  0  0  0
 19 20  2  0  0  0  0
 19 40  1  0  0  0  0
 20 21  1  0  0  0  0
 21 22  1  0  0  0  0
 22 23  2  0  0  0  0
 22 39  1  0  0  0  0
 23 24  1  0  0  0  0
 23 56  1  0  0  0  0
 24 25  2  0  0  0  0
 24 57  1  0  0  0  0
 25 26  1  0  0  0  0
 25 58  1  0  0  0  0
 26 27  1  0  0  0  0
 26 39  2  0  0  0  0
 27 28  1  0  0  0  0
 27 59  1  0  0  0  0
 28 29  2  0  0  0  0
 28 30  2  0  0  0  0
 28 31  1  0  0  0  0
 31 32  2  0  0  0  0
 31 37  1  0  0  0  0
 32 33  1  0  0  0  0
 32 34  1  0  0  0  0
 34 35  2  0  0  0  0
 34 60  1  0  0  0  0
 35 36  1  0  0  0  0
 35 61  1  0  0  0  0
 36 37  2  0  0  0  0
 36 62  1  0  0  0  0
 37 38  1  0  0  0  0
 39 63  1  0  0  0  0
 40 41  1  0  0  0  0
 40 45  1  0  0  0  0
 41 42  1  0  0  0  0
 41 64  1  0  0  0  0
 41 65  1  0  0  0  0
 42 43  1  0  0  0  0
 42 66  1  0  0  0  0
 42 67  1  0  0  0  0
 43 44  1  0  0  0  0
 44 45  1  0  0  0  0
 44 68  1  0  0  0  0
 44 69  1  0  0  0  0
 45 70  1  0  0  0  0
 45 71  1  0  0  0  0
 46 72  1  0  0  0  0
M  END
