5auy_ligand
 OpenBabel08222323353D

 32 34  0  0  0  0  0  0  0  0999 V2000
  -21.3050    1.7020  -11.0580 O   0  0  0  0  0  0  0  0  0  0  0  0
  -22.2740    2.5620  -10.6200 C   0  0  0  0  0  0  0  0  0  0  0  0
  -23.3970    2.7630  -11.4160 C   0  0  0  0  0  0  0  0  0  0  0  0
  -23.5360    2.1770  -12.4940 O   0  0  0  0  0  0  0  0  0  0  0  0
  -24.3770    3.6370  -10.9460 C   0  0  0  0  0  0  0  0  0  0  0  0
  -25.5420    3.8740  -11.6730 C   0  0  0  0  0  0  0  0  0  0  0  0
  -25.6710    3.2190  -12.8560 O   0  0  0  0  0  0  0  0  0  0  0  0
  -26.5320    4.7360  -11.2220 C   0  0  0  0  0  0  0  0  0  0  0  0
  -26.3560    5.3790  -10.0090 C   0  0  0  0  0  0  0  0  0  0  0  0
  -27.3140    6.2270   -9.5510 O   0  0  0  0  0  0  0  0  0  0  0  0
  -25.2010    5.1590   -9.2670 C   0  0  0  0  0  0  0  0  0  0  0  0
  -24.2160    4.2930   -9.7340 C   0  0  0  0  0  0  0  0  0  0  0  0
  -23.0840    4.0740   -8.9960 O   0  0  0  0  0  0  0  0  0  0  0  0
  -22.0980    3.2060   -9.3950 C   0  0  0  0  0  0  0  0  0  0  0  0
  -21.0080    3.1120   -8.5060 C   0  0  0  0  0  0  0  0  0  0  0  0
  -20.8230    4.1940   -7.6460 C   0  0  0  0  0  0  0  0  0  0  0  0
  -19.7820    4.2020   -6.7200 C   0  0  0  0  0  0  0  0  0  0  0  0
  -18.9000    3.1360   -6.6290 C   0  0  0  0  0  0  0  0  0  0  0  0
  -17.8830    3.1690   -5.7140 O   0  0  0  0  0  0  0  0  0  0  0  0
  -19.0660    2.0420   -7.4680 C   0  0  0  0  0  0  0  0  0  0  0  0
  -20.1100    2.0380   -8.3920 C   0  0  0  0  0  0  0  0  0  0  0  0
  -20.2720    0.9740   -9.2200 O   0  0  0  0  0  0  0  0  0  0  0  0
  -20.6041    1.6640  -10.4179 H   0  0  0  0  0  0  0  0  0  0  0  0
  -25.6503    2.2819  -12.7017 H   0  0  0  0  0  0  0  0  0  0  0  0
  -27.4275    4.9027  -11.8096 H   0  0  0  0  0  0  0  0  0  0  0  0
  -27.0448    6.5841   -8.7129 H   0  0  0  0  0  0  0  0  0  0  0  0
  -25.0664    5.6654   -8.3180 H   0  0  0  0  0  0  0  0  0  0  0  0
  -21.4983    5.0404   -7.6986 H   0  0  0  0  0  0  0  0  0  0  0  0
  -19.6598    5.0540   -6.0611 H   0  0  0  0  0  0  0  0  0  0  0  0
  -17.3737    2.3697   -5.7793 H   0  0  0  0  0  0  0  0  0  0  0  0
  -18.3891    1.1977   -7.4050 H   0  0  0  0  0  0  0  0  0  0  0  0
  -21.0213    1.1245   -9.7844 H   0  0  0  0  0  0  0  0  0  0  0  0
  1  2  1  0  0  0  0
  1 23  1  0  0  0  0
  2  3  1  0  0  0  0
  2 14  2  0  0  0  0
  3  4  2  0  0  0  0
  3  5  1  0  0  0  0
  5  6  2  0  0  0  0
  5 12  1  0  0  0  0
  6  7  1  0  0  0  0
  6  8  1  0  0  0  0
  7 24  1  0  0  0  0
  8  9  2  0  0  0  0
  8 25  1  0  0  0  0
  9 10  1  0  0  0  0
  9 11  1  0  0  0  0
 10 26  1  0  0  0  0
 11 12  2  0  0  0  0
 11 27  1  0  0  0  0
 12 13  1  0  0  0  0
 13 14  1  0  0  0  0
 14 15  1  0  0  0  0
 15 16  2  0  0  0  0
 15 21  1  0  0  0  0
 16 17  1  0  0  0  0
 16 28  1  0  0  0  0
 17 18  2  0  0  0  0
 17 29  1  0  0  0  0
 18 19  1  0  0  0  0
 18 20  1  0  0  0  0
 19 30  1  0  0  0  0
 20 21  2  0  0  0  0
 20 31  1  0  0  0  0
 21 22  1  0  0  0  0
 22 32  1  0  0  0  0
M  END
