5axp_ligand
 OpenBabel08222323353D

 51 55  0  0  0  0  0  0  0  0999 V2000
    9.5540    1.8700  -20.2790 C   0  0  0  0  0  0  0  0  0  0  0  0
    8.3050    1.7530  -19.7020 C   0  0  0  0  0  0  0  0  0  0  0  0
   10.5310    0.9360  -20.0080 C   0  0  0  0  0  0  0  0  0  0  0  0
    8.0270    0.7080  -18.8500 C   0  0  0  0  0  0  0  0  0  0  0  0
   10.2660   -0.1160  -19.1600 C   0  0  0  0  0  0  0  0  0  0  0  0
    9.8370   -0.5160  -23.5650 C   0  0  0  0  0  0  0  0  0  0  0  0
    8.9460   -0.9290  -22.5950 C   0  0  0  0  0  0  0  0  0  0  0  0
    7.8060   -3.0090  -16.7870 C   0  0  0  0  0  0  0  0  0  0  0  0
    9.6790   -2.6450  -24.6020 C   0  0  0  0  0  0  0  0  0  0  0  0
    8.5950   -2.2700  -15.8780 C   0  0  0  0  0  0  0  0  0  0  0  0
    9.0150   -0.2140  -18.5920 C   0  0  0  0  0  0  0  0  0  0  0  0
   10.2210   -1.3790  -24.5730 C   0  0  0  0  0  0  0  0  0  0  0  0
    8.4100   -2.2020  -22.5960 C   0  0  0  0  0  0  0  0  0  0  0  0
    8.7980   -3.0460  -23.6180 C   0  0  0  0  0  0  0  0  0  0  0  0
    7.9200   -2.3390  -17.9840 C   0  0  0  0  0  0  0  0  0  0  0  0
    6.3550   -3.2900  -21.7030 C   0  0  0  0  0  0  0  0  0  0  0  0
    7.3760   -2.6400  -19.2670 C   0  0  0  0  0  0  0  0  0  0  0  0
    5.5650   -3.6960  -20.6990 C   0  0  0  0  0  0  0  0  0  0  0  0
    6.0670   -3.3630  -19.3490 C   0  0  0  0  0  0  0  0  0  0  0  0
   11.8780   -1.7810  -26.3760 C   0  0  0  0  0  0  0  0  0  0  0  0
   11.5930    0.4080  -25.6230 C   0  0  0  0  0  0  0  0  0  0  0  0
   12.7140    0.3350  -26.6340 C   0  0  0  0  0  0  0  0  0  0  0  0
    4.1190   -4.7940  -22.1360 C   0  0  0  0  0  0  0  0  0  0  0  0
    9.1770   -1.2190  -16.4600 N   0  0  0  0  0  0  0  0  0  0  0  0
    8.0540   -2.3110  -20.3250 N   0  0  0  0  0  0  0  0  0  0  0  0
    8.7480   -1.2810  -17.7310 N   0  0  0  0  0  0  0  0  0  0  0  0
    7.5490   -2.6200  -21.5460 N   0  0  0  0  0  0  0  0  0  0  0  0
   11.1410   -0.9530  -25.5610 N   0  0  0  0  0  0  0  0  0  0  0  0
    5.4760   -3.6600  -18.3200 O   0  0  0  0  0  0  0  0  0  0  0  0
   11.7580   -2.9880  -26.5230 O   0  0  0  0  0  0  0  0  0  0  0  0
   12.8120   -1.0310  -27.0450 O   0  0  0  0  0  0  0  0  0  0  0  0
    4.3600   -4.3810  -20.7830 O   0  0  0  0  0  0  0  0  0  0  0  0
    8.3160   -4.2940  -23.6600 F   0  0  0  0  0  0  0  0  0  0  0  0
    9.7666    2.6976  -20.9461 H   0  0  0  0  0  0  0  0  0  0  0  0
    7.5391    2.4881  -19.9211 H   0  0  0  0  0  0  0  0  0  0  0  0
   11.5101    1.0299  -20.4635 H   0  0  0  0  0  0  0  0  0  0  0  0
    7.0492    0.6135  -18.3916 H   0  0  0  0  0  0  0  0  0  0  0  0
   11.0291   -0.8547  -18.9431 H   0  0  0  0  0  0  0  0  0  0  0  0
   10.2375    0.4909  -23.5356 H   0  0  0  0  0  0  0  0  0  0  0  0
    8.6595   -0.2362  -21.8120 H   0  0  0  0  0  0  0  0  0  0  0  0
    7.2323   -3.9123  -16.5848 H   0  0  0  0  0  0  0  0  0  0  0  0
    9.9452   -3.3285  -25.4001 H   0  0  0  0  0  0  0  0  0  0  0  0
    8.7144   -2.5272  -14.8266 H   0  0  0  0  0  0  0  0  0  0  0  0
    6.0287   -3.5059  -22.7193 H   0  0  0  0  0  0  0  0  0  0  0  0
   10.7910    1.0779  -25.9665 H   0  0  0  0  0  0  0  0  0  0  0  0
   11.9618    0.7492  -24.6445 H   0  0  0  0  0  0  0  0  0  0  0  0
   13.6592    0.6611  -26.1755 H   0  0  0  0  0  0  0  0  0  0  0  0
   12.4860    0.9751  -27.4990 H   0  0  0  0  0  0  0  0  0  0  0  0
    3.1627   -5.3349  -22.1894 H   0  0  0  0  0  0  0  0  0  0  0  0
    4.9331   -5.4550  -22.4682 H   0  0  0  0  0  0  0  0  0  0  0  0
    4.0764   -3.9088  -22.7876 H   0  0  0  0  0  0  0  0  0  0  0  0
  1 34  1  0  0  0  0
  2  1  2  0  0  0  0
  2 35  1  0  0  0  0
  3  1  1  0  0  0  0
  3 36  1  0  0  0  0
  4  2  1  0  0  0  0
  4 37  1  0  0  0  0
  5  3  2  0  0  0  0
  5 38  1  0  0  0  0
  6  7  2  0  0  0  0
  6 39  1  0  0  0  0
  7 13  1  0  0  0  0
  7 40  1  0  0  0  0
  8 10  1  0  0  0  0
  8 41  1  0  0  0  0
  9 14  1  0  0  0  0
  9 42  1  0  0  0  0
 10 24  2  0  0  0  0
 10 43  1  0  0  0  0
 11  4  2  0  0  0  0
 11  5  1  0  0  0  0
 12  6  1  0  0  0  0
 12  9  2  0  0  0  0
 13 27  1  0  0  0  0
 14 13  2  0  0  0  0
 14 33  1  0  0  0  0
 15  8  2  0  0  0  0
 15 26  1  0  0  0  0
 16 18  2  0  0  0  0
 16 44  1  0  0  0  0
 17 15  1  0  0  0  0
 17 25  2  0  0  0  0
 18 19  1  0  0  0  0
 18 32  1  0  0  0  0
 19 17  1  0  0  0  0
 19 29  2  0  0  0  0
 20 30  2  0  0  0  0
 20 31  1  0  0  0  0
 21 22  1  0  0  0  0
 21 28  1  0  0  0  0
 21 45  1  0  0  0  0
 21 46  1  0  0  0  0
 22 31  1  0  0  0  0
 22 47  1  0  0  0  0
 22 48  1  0  0  0  0
 23 49  1  0  0  0  0
 23 50  1  0  0  0  0
 23 51  1  0  0  0  0
 24 26  1  0  0  0  0
 25 27  1  0  0  0  0
 26 11  1  0  0  0  0
 27 16  1  0  0  0  0
 28 12  1  0  0  0  0
 28 20  1  0  0  0  0
 32 23  1  0  0  0  0
M  END
