5azg_ligand
 OpenBabel08222323353D

 88 89  0  0  1  0  0  0  0  0999 V2000
    7.5190   30.9150   15.2310 N   0  3  0  0  0  0  0  0  0  0  0  0
    8.5660   30.9590   16.2880 C   0  0  2  0  0  0  0  0  0  0  0  0
    8.8650   29.5360   16.7670 C   0  0  0  0  0  0  0  0  0  0  0  0
    8.0060   28.6620   16.6930 O   0  0  0  0  0  0  0  0  0  0  0  0
    8.0990   31.8320   17.4640 C   0  0  0  0  0  0  0  0  0  0  0  0
    9.1320   32.8730   17.8770 C   0  0  0  0  0  0  0  0  0  0  0  0
    9.5770   33.6470   17.0050 O   0  5  0  0  0  0  0  0  0  0  0  0
    9.4830   32.9350   19.0760 O   0  0  0  0  0  0  0  0  0  0  0  0
   10.0760   29.3230   17.2730 N   0  0  0  0  0  0  0  0  0  0  0  0
   10.5160   27.9990   17.7300 C   0  0  2  0  0  0  0  0  0  0  0  0
    9.9150   27.6240   19.0800 C   0  0  0  0  0  0  0  0  0  0  0  0
    9.7520   28.4730   19.9590 O   0  0  0  0  0  0  0  0  0  0  0  0
   12.0400   27.9350   17.8440 C   0  0  0  0  0  0  0  0  0  0  0  0
   12.7450   27.9390   16.5270 C   0  0  0  0  0  0  0  0  0  0  0  0
   13.0210   29.1370   15.8780 C   0  0  0  0  0  0  0  0  0  0  0  0
   13.1390   26.7440   15.9300 C   0  0  0  0  0  0  0  0  0  0  0  0
   13.6720   29.1470   14.6580 C   0  0  0  0  0  0  0  0  0  0  0  0
   13.7920   26.7480   14.7070 C   0  0  0  0  0  0  0  0  0  0  0  0
   14.0610   27.9550   14.0720 C   0  0  0  0  0  0  0  0  0  0  0  0
    9.6100   26.3400   19.2370 N   0  0  0  0  0  0  0  0  0  0  0  0
    9.1480   25.7890   20.5030 C   0  0  2  0  0  0  0  0  0  0  0  0
   10.3370   25.1680   21.2300 C   0  0  0  0  0  0  0  0  0  0  0  0
   11.0440   24.3360   20.6660 O   0  0  0  0  0  0  0  0  0  0  0  0
    8.0550   24.7300   20.2770 C   0  0  2  0  0  0  0  0  0  0  0  0
    6.9300   25.3440   19.6290 O   0  0  0  0  0  0  0  0  0  0  0  0
    7.6050   24.1120   21.6000 C   0  0  0  0  0  0  0  0  0  0  0  0
   10.5470   25.5730   22.4810 N   0  0  0  0  0  0  0  0  0  0  0  0
   11.6270   25.0340   23.3110 C   0  0  2  0  0  0  0  0  0  0  0  0
   11.1440   23.7580   23.9880 C   0  0  0  0  0  0  0  0  0  0  0  0
   10.0880   23.7640   24.6280 O   0  0  0  0  0  0  0  0  0  0  0  0
   12.0570   26.0490   24.3810 C   0  0  0  0  0  0  0  0  0  0  0  0
   12.8340   27.2160   23.8400 C   0  0  0  0  0  0  0  0  0  0  0  0
   12.1980   28.2200   23.1120 C   0  0  0  0  0  0  0  0  0  0  0  0
   14.2040   27.3250   24.0670 C   0  0  0  0  0  0  0  0  0  0  0  0
   12.9140   29.3010   22.6170 C   0  0  0  0  0  0  0  0  0  0  0  0
   14.9250   28.4070   23.5720 C   0  0  0  0  0  0  0  0  0  0  0  0
   14.2750   29.3930   22.8460 C   0  0  0  0  0  0  0  0  0  0  0  0
   11.9060   22.6720   23.8420 N   0  0  0  0  0  0  0  0  0  0  0  0
   11.6310   21.4130   24.5470 C   0  0  2  0  0  0  0  0  0  0  0  0
   12.6380   21.1980   25.6810 C   0  0  0  0  0  0  0  0  0  0  0  0
   12.5550   20.2320   26.4440 O   0  5  0  0  0  0  0  0  0  0  0  0
   11.6560   20.2320   23.5680 C   0  0  0  0  0  0  0  0  0  0  0  0
   10.5630   20.2130   22.4910 C   0  0  0  0  0  0  0  0  0  0  0  0
   10.7660   19.0500   21.5340 C   0  0  0  0  0  0  0  0  0  0  0  0
    9.1690   20.1420   23.0990 C   0  0  0  0  0  0  0  0  0  0  0  0
   13.5630   21.9890   25.8740 O   0  0  0  0  0  0  0  0  0  0  0  0
    7.3213   31.8515   14.9148 H   0  0  0  0  0  0  0  0  0  0  0  0
    6.6793   30.5029   15.6067 H   0  0  0  0  0  0  0  0  0  0  0  0
    7.8474   30.3609   14.4556 H   0  0  0  0  0  0  0  0  0  0  0  0
    9.4835   31.3945   15.8655 H   0  0  0  0  0  0  0  0  0  0  0  0
    7.8944   31.1797   18.3257 H   0  0  0  0  0  0  0  0  0  0  0  0
    7.1752   32.3518   17.1700 H   0  0  0  0  0  0  0  0  0  0  0  0
   10.7103   30.0928   17.3449 H   0  0  0  0  0  0  0  0  0  0  0  0
   10.1876   27.2584   16.9859 H   0  0  0  0  0  0  0  0  0  0  0  0
   12.3091   27.0119   18.3783 H   0  0  0  0  0  0  0  0  0  0  0  0
   12.3812   28.8063   18.4223 H   0  0  0  0  0  0  0  0  0  0  0  0
   12.7224   30.0742   16.3336 H   0  0  0  0  0  0  0  0  0  0  0  0
   12.9333   25.8023   16.4260 H   0  0  0  0  0  0  0  0  0  0  0  0
   13.8776   30.0881   14.1608 H   0  0  0  0  0  0  0  0  0  0  0  0
   14.0918   25.8131   14.2475 H   0  0  0  0  0  0  0  0  0  0  0  0
   14.5754   27.9626   13.1179 H   0  0  0  0  0  0  0  0  0  0  0  0
    9.7017   25.7265   18.4526 H   0  0  0  0  0  0  0  0  0  0  0  0
    8.7321   26.6012   21.1173 H   0  0  0  0  0  0  0  0  0  0  0  0
    8.4564   23.9351   19.6313 H   0  0  0  0  0  0  0  0  0  0  0  0
    7.2045   25.7032   18.7935 H   0  0  0  0  0  0  0  0  0  0  0  0
    6.8252   23.3605   21.4072 H   0  0  0  0  0  0  0  0  0  0  0  0
    7.2018   24.8992   22.2541 H   0  0  0  0  0  0  0  0  0  0  0  0
    8.4639   23.6313   22.0911 H   0  0  0  0  0  0  0  0  0  0  0  0
    9.9449   26.2712   22.8684 H   0  0  0  0  0  0  0  0  0  0  0  0
   12.4907   24.8024   22.6704 H   0  0  0  0  0  0  0  0  0  0  0  0
   12.6845   25.5283   25.1193 H   0  0  0  0  0  0  0  0  0  0  0  0
   11.1530   26.4347   24.8750 H   0  0  0  0  0  0  0  0  0  0  0  0
   11.1313   28.1558   22.9302 H   0  0  0  0  0  0  0  0  0  0  0  0
   14.7148   26.5571   24.6365 H   0  0  0  0  0  0  0  0  0  0  0  0
   12.4064   30.0735   22.0507 H   0  0  0  0  0  0  0  0  0  0  0  0
   15.9913   28.4788   23.7534 H   0  0  0  0  0  0  0  0  0  0  0  0
   14.8338   30.2367   22.4575 H   0  0  0  0  0  0  0  0  0  0  0  0
   12.6947   22.7172   23.2289 H   0  0  0  0  0  0  0  0  0  0  0  0
   10.6247   21.4758   24.9867 H   0  0  0  0  0  0  0  0  0  0  0  0
   11.5613   19.3076   24.1567 H   0  0  0  0  0  0  0  0  0  0  0  0
   12.6296   20.2426   23.0561 H   0  0  0  0  0  0  0  0  0  0  0  0
   10.6380   21.1487   21.9176 H   0  0  0  0  0  0  0  0  0  0  0  0
    9.9716   19.0583   20.7732 H   0  0  0  0  0  0  0  0  0  0  0  0
   10.7279   18.1037   22.0935 H   0  0  0  0  0  0  0  0  0  0  0  0
   11.7454   19.1462   21.0425 H   0  0  0  0  0  0  0  0  0  0  0  0
    9.0272   20.9856   23.7906 H   0  0  0  0  0  0  0  0  0  0  0  0
    9.0560   19.1953   23.6475 H   0  0  0  0  0  0  0  0  0  0  0  0
    8.4166   20.1939   22.2983 H   0  0  0  0  0  0  0  0  0  0  0  0
  1  2  1  0  0  0  0
  1 47  1  0  0  0  0
  1 48  1  0  0  0  0
  1 49  1  0  0  0  0
  2  3  1  0  0  0  0
  2  5  1  0  0  0  0
  2 50  1  6  0  0  0
  3  4  2  0  0  0  0
  3  9  1  0  0  0  0
  5  6  1  0  0  0  0
  5 51  1  0  0  0  0
  5 52  1  0  0  0  0
  6  7  1  0  0  0  0
  6  8  2  0  0  0  0
  9 10  1  0  0  0  0
  9 53  1  0  0  0  0
 10 11  1  0  0  0  0
 10 13  1  0  0  0  0
 10 54  1  6  0  0  0
 11 12  2  0  0  0  0
 11 20  1  0  0  0  0
 13 14  1  0  0  0  0
 13 55  1  0  0  0  0
 13 56  1  0  0  0  0
 14 15  2  0  0  0  0
 14 16  1  0  0  0  0
 15 17  1  0  0  0  0
 15 57  1  0  0  0  0
 16 18  2  0  0  0  0
 16 58  1  0  0  0  0
 17 19  2  0  0  0  0
 17 59  1  0  0  0  0
 18 19  1  0  0  0  0
 18 60  1  0  0  0  0
 19 61  1  0  0  0  0
 20 21  1  0  0  0  0
 20 62  1  0  0  0  0
 21 22  1  0  0  0  0
 21 24  1  0  0  0  0
 21 63  1  1  0  0  0
 22 23  2  0  0  0  0
 22 27  1  0  0  0  0
 24 25  1  0  0  0  0
 24 26  1  0  0  0  0
 24 64  1  6  0  0  0
 25 65  1  0  0  0  0
 26 66  1  0  0  0  0
 26 67  1  0  0  0  0
 26 68  1  0  0  0  0
 27 28  1  0  0  0  0
 27 69  1  0  0  0  0
 28 29  1  0  0  0  0
 28 31  1  0  0  0  0
 28 70  1  6  0  0  0
 29 30  2  0  0  0  0
 29 38  1  0  0  0  0
 31 32  1  0  0  0  0
 31 71  1  0  0  0  0
 31 72  1  0  0  0  0
 32 33  2  0  0  0  0
 32 34  1  0  0  0  0
 33 35  1  0  0  0  0
 33 73  1  0  0  0  0
 34 36  2  0  0  0  0
 34 74  1  0  0  0  0
 35 37  2  0  0  0  0
 35 75  1  0  0  0  0
 36 37  1  0  0  0  0
 36 76  1  0  0  0  0
 37 77  1  0  0  0  0
 38 39  1  0  0  0  0
 38 78  1  0  0  0  0
 39 40  1  0  0  0  0
 39 42  1  0  0  0  0
 39 79  1  1  0  0  0
 40 41  1  0  0  0  0
 40 46  2  0  0  0  0
 42 43  1  0  0  0  0
 42 80  1  0  0  0  0
 42 81  1  0  0  0  0
 43 44  1  0  0  0  0
 43 45  1  0  0  0  0
 43 82  1  0  0  0  0
 44 83  1  0  0  0  0
 44 84  1  0  0  0  0
 44 85  1  0  0  0  0
 45 86  1  0  0  0  0
 45 87  1  0  0  0  0
 45 88  1  0  0  0  0
M  CHG  3   1   1   7  -1  41  -1
M  END
