5bnj_ligand
 OpenBabel08222323353D

 54 58  0  0  0  0  0  0  0  0999 V2000
   37.5450   55.8820   45.9430 C   0  0  0  0  0  0  0  0  0  0  0  0
   38.8030   56.9580   47.8320 C   0  0  0  0  0  0  0  0  0  0  0  0
   39.7420   56.5680   48.7420 C   0  0  0  0  0  0  0  0  0  0  0  0
   40.0140   55.2090   48.4870 C   0  0  0  0  0  0  0  0  0  0  0  0
   40.3650   57.4170   49.8010 C   0  0  0  0  0  0  0  0  0  0  0  0
   40.4500   58.8130   49.6500 C   0  0  0  0  0  0  0  0  0  0  0  0
   41.4690   57.6060   51.9350 C   0  0  0  0  0  0  0  0  0  0  0  0
   40.8870   56.8250   50.9580 C   0  0  0  0  0  0  0  0  0  0  0  0
   43.5310   61.2680   54.7360 C   0  0  0  0  0  0  0  0  0  0  0  0
   42.3710   60.6310   55.1280 C   0  0  0  0  0  0  0  0  0  0  0  0
   41.6590   59.8610   54.1940 C   0  0  0  0  0  0  0  0  0  0  0  0
   40.5660   58.0030   55.4170 C   0  0  0  0  0  0  0  0  0  0  0  0
   38.0210   58.1310   55.6090 C   0  0  0  0  0  0  0  0  0  0  0  0
   37.6330   56.9590   54.6780 C   0  0  0  0  0  0  0  0  0  0  0  0
   36.9070   58.1590   56.6250 C   0  0  0  0  0  0  0  0  0  0  0  0
   36.6290   59.1020   57.3350 O   0  0  0  0  0  0  0  0  0  0  0  0
   39.2420   59.4320   53.8520 C   0  0  0  0  0  0  0  0  0  0  0  0
   38.5060   55.9010   47.0500 N   0  0  0  0  0  0  0  0  0  0  0  0
   39.2780   54.8210   47.4800 N   0  0  0  0  0  0  0  0  0  0  0  0
   41.0350   59.5970   50.6330 C   0  0  0  0  0  0  0  0  0  0  0  0
   41.5470   58.9960   51.7860 C   0  0  0  0  0  0  0  0  0  0  0  0
   42.1820   59.7880   52.8670 C   0  0  0  0  0  0  0  0  0  0  0  0
   43.3710   60.4680   52.5710 C   0  0  0  0  0  0  0  0  0  0  0  0
   43.9960   61.1760   53.4960 N   0  0  0  0  0  0  0  0  0  0  0  0
   41.8370   60.8110   56.7760 Cl  0  0  0  0  0  0  0  0  0  0  0  0
   40.4830   59.2300   54.6120 N   0  0  0  0  0  0  0  0  0  0  0  0
   39.3450   57.8860   56.3410 C   0  0  0  0  0  0  0  0  0  0  0  0
   36.8520   56.0530   55.6500 C   0  0  0  0  0  0  0  0  0  0  0  0
   36.2680   56.9740   56.6320 N   0  0  0  0  0  0  0  0  0  0  0  0
   38.0660   59.4470   54.8310 C   0  0  0  0  0  0  0  0  0  0  0  0
   37.0878   56.8769   45.8373 H   0  0  0  0  0  0  0  0  0  0  0  0
   36.7613   55.1385   46.1505 H   0  0  0  0  0  0  0  0  0  0  0  0
   38.0648   55.6165   45.0107 H   0  0  0  0  0  0  0  0  0  0  0  0
   38.3679   57.9531   47.7513 H   0  0  0  0  0  0  0  0  0  0  0  0
   40.7189   54.5871   49.0368 H   0  0  0  0  0  0  0  0  0  0  0  0
   40.0541   59.2808   48.7559 H   0  0  0  0  0  0  0  0  0  0  0  0
   41.8700   57.1387   52.8271 H   0  0  0  0  0  0  0  0  0  0  0  0
   40.8335   55.7499   51.0862 H   0  0  0  0  0  0  0  0  0  0  0  0
   44.0777   61.8600   55.4610 H   0  0  0  0  0  0  0  0  0  0  0  0
   41.4809   58.0308   56.0270 H   0  0  0  0  0  0  0  0  0  0  0  0
   40.5984   57.1313   54.7469 H   0  0  0  0  0  0  0  0  0  0  0  0
   38.5224   56.4498   54.2783 H   0  0  0  0  0  0  0  0  0  0  0  0
   36.9993   57.2980   53.8452 H   0  0  0  0  0  0  0  0  0  0  0  0
   39.1123   58.6125   53.1298 H   0  0  0  0  0  0  0  0  0  0  0  0
   39.2887   60.3905   53.3144 H   0  0  0  0  0  0  0  0  0  0  0  0
   41.0949   60.6720   50.5074 H   0  0  0  0  0  0  0  0  0  0  0  0
   43.7837   60.4127   51.5702 H   0  0  0  0  0  0  0  0  0  0  0  0
   39.4427   58.6269   57.1481 H   0  0  0  0  0  0  0  0  0  0  0  0
   39.3262   56.8743   56.7723 H   0  0  0  0  0  0  0  0  0  0  0  0
   37.5283   55.3389   56.1426 H   0  0  0  0  0  0  0  0  0  0  0  0
   36.0625   55.5026   55.1174 H   0  0  0  0  0  0  0  0  0  0  0  0
   35.4967   56.7507   57.2281 H   0  0  0  0  0  0  0  0  0  0  0  0
   38.1880   60.2832   55.5351 H   0  0  0  0  0  0  0  0  0  0  0  0
   37.1272   59.5726   54.2717 H   0  0  0  0  0  0  0  0  0  0  0  0
  1 31  1  0  0  0  0
  1 32  1  0  0  0  0
  1 33  1  0  0  0  0
  2 18  1  0  0  0  0
  2 34  1  0  0  0  0
  3  2  2  0  0  0  0
  3  4  1  0  0  0  0
  4 19  2  0  0  0  0
  4 35  1  0  0  0  0
  5  3  1  0  0  0  0
  6  5  2  0  0  0  0
  6 36  1  0  0  0  0
  7  8  2  0  0  0  0
  7 37  1  0  0  0  0
  8  5  1  0  0  0  0
  8 38  1  0  0  0  0
  9 24  1  0  0  0  0
  9 39  1  0  0  0  0
 10  9  2  0  0  0  0
 10 25  1  0  0  0  0
 11 10  1  0  0  0  0
 11 26  1  0  0  0  0
 12 27  1  0  0  0  0
 12 40  1  0  0  0  0
 12 41  1  0  0  0  0
 13 14  1  0  0  0  0
 13 15  1  0  0  0  0
 14 28  1  0  0  0  0
 14 42  1  0  0  0  0
 14 43  1  0  0  0  0
 15 16  2  0  0  0  0
 15 29  1  0  0  0  0
 17 30  1  0  0  0  0
 17 44  1  0  0  0  0
 17 45  1  0  0  0  0
 18  1  1  0  0  0  0
 19 18  1  0  0  0  0
 20  6  1  0  0  0  0
 20 46  1  0  0  0  0
 21  7  1  0  0  0  0
 21 20  2  0  0  0  0
 21 22  1  0  0  0  0
 22 11  2  0  0  0  0
 22 23  1  0  0  0  0
 23 24  2  0  0  0  0
 23 47  1  0  0  0  0
 26 12  1  0  0  0  0
 26 17  1  0  0  0  0
 27 13  1  0  0  0  0
 27 48  1  0  0  0  0
 27 49  1  0  0  0  0
 28 29  1  0  0  0  0
 28 50  1  0  0  0  0
 28 51  1  0  0  0  0
 29 52  1  0  0  0  0
 30 13  1  0  0  0  0
 30 53  1  0  0  0  0
 30 54  1  0  0  0  0
M  END
