5bot_ligand
 OpenBabel08222323353D

 29 30  0  0  0  0  0  0  0  0999 V2000
   -7.1070   27.4260   52.3360 C   0  0  0  0  0  0  0  0  0  0  0  0
  -11.0830   27.4880   46.0100 C   0  0  0  0  0  0  0  0  0  0  0  0
   -7.2700   27.5800   54.7090 C   0  0  0  0  0  0  0  0  0  0  0  0
   -6.6920   26.4800   55.6050 C   0  0  0  0  0  0  0  0  0  0  0  0
   -9.1400   27.3810   49.2490 C   0  0  0  0  0  0  0  0  0  0  0  0
   -8.0350   28.1820   48.8900 C   0  0  0  0  0  0  0  0  0  0  0  0
   -8.9430   26.9710   50.6050 C   0  0  0  0  0  0  0  0  0  0  0  0
  -10.1400   27.1550   48.2970 C   0  0  0  0  0  0  0  0  0  0  0  0
   -7.2160   28.2590   49.9820 N   0  0  0  0  0  0  0  0  0  0  0  0
   -7.9500   28.7370   47.6160 C   0  0  0  0  0  0  0  0  0  0  0  0
   -7.7550   27.5140   51.0170 C   0  0  0  0  0  0  0  0  0  0  0  0
  -10.0280   27.7060   47.0220 C   0  0  0  0  0  0  0  0  0  0  0  0
   -8.9310   28.5110   46.6980 C   0  0  0  0  0  0  0  0  0  0  0  0
   -7.7460   27.0060   53.4520 O   0  0  0  0  0  0  0  0  0  0  0  0
   -5.9640   27.8220   52.4440 O   0  0  0  0  0  0  0  0  0  0  0  0
  -12.2830   28.0810   46.1710 N   0  0  0  0  0  0  0  0  0  0  0  0
  -10.8870   26.7690   45.0510 O   0  0  0  0  0  0  0  0  0  0  0  0
   -6.4882   28.3240   54.4961 H   0  0  0  0  0  0  0  0  0  0  0  0
   -8.1090   28.0676   55.2269 H   0  0  0  0  0  0  0  0  0  0  0  0
   -6.3373   26.9232   56.5472 H   0  0  0  0  0  0  0  0  0  0  0  0
   -5.8515   25.9917   55.0902 H   0  0  0  0  0  0  0  0  0  0  0  0
   -7.4722   25.7353   55.8210 H   0  0  0  0  0  0  0  0  0  0  0  0
   -9.6103   26.3463   51.1969 H   0  0  0  0  0  0  0  0  0  0  0  0
  -11.0030   26.5505   48.5516 H   0  0  0  0  0  0  0  0  0  0  0  0
   -6.3342   28.7893   50.0276 H   0  0  0  0  0  0  0  0  0  0  0  0
   -7.0977   29.3530   47.3527 H   0  0  0  0  0  0  0  0  0  0  0  0
   -8.8611   28.9569   45.7124 H   0  0  0  0  0  0  0  0  0  0  0  0
  -13.0048   27.9412   45.4932 H   0  0  0  0  0  0  0  0  0  0  0  0
  -12.4513   28.6607   46.9683 H   0  0  0  0  0  0  0  0  0  0  0  0
  1 14  1  0  0  0  0
  1 15  2  0  0  0  0
  2 16  1  0  0  0  0
  2 17  2  0  0  0  0
  3  4  1  0  0  0  0
  3 18  1  0  0  0  0
  3 19  1  0  0  0  0
  4 20  1  0  0  0  0
  4 21  1  0  0  0  0
  4 22  1  0  0  0  0
  5  6  2  0  0  0  0
  5  7  1  0  0  0  0
  6  9  1  0  0  0  0
  6 10  1  0  0  0  0
  7 11  2  0  0  0  0
  7 23  1  0  0  0  0
  8  5  1  0  0  0  0
  8 12  2  0  0  0  0
  8 24  1  0  0  0  0
  9 11  1  0  0  0  0
  9 25  1  0  0  0  0
 10 13  2  0  0  0  0
 10 26  1  0  0  0  0
 11  1  1  0  0  0  0
 12  2  1  0  0  0  0
 12 13  1  0  0  0  0
 13 27  1  0  0  0  0
 14  3  1  0  0  0  0
 16 28  1  0  0  0  0
 16 29  1  0  0  0  0
M  END
