5bpe_ligand
 OpenBabel08222323353D

 70 72  0  0  1  0  0  0  0  0999 V2000
   14.7360   11.0470   25.2440 C   0  0  0  0  0  0  0  0  0  0  0  0
   15.3980   10.0270   25.1550 O   0  0  0  0  0  0  0  0  0  0  0  0
   14.7180   11.8260   26.5560 C   0  0  0  0  0  0  0  0  0  0  0  0
   13.6050   11.4120   27.5110 C   0  0  0  0  0  0  0  0  0  0  0  0
   13.7710   11.7670   28.9880 C   0  0  0  0  0  0  0  0  0  0  0  0
   13.0660   11.0330   29.9520 C   0  0  0  0  0  0  0  0  0  0  0  0
   13.1740   11.3250   31.3150 C   0  0  0  0  0  0  0  0  0  0  0  0
   14.0040   12.3700   31.7210 C   0  0  0  0  0  0  0  0  0  0  0  0
   14.7120   13.1090   30.7680 C   0  0  0  0  0  0  0  0  0  0  0  0
   14.5980   12.8100   29.4110 C   0  0  0  0  0  0  0  0  0  0  0  0
   13.9960   11.5110   24.1120 N   0  0  0  0  0  0  0  0  0  0  0  0
   13.9900   10.8080   22.8630 C   0  0  2  0  0  0  0  0  0  0  0  0
   15.3040   10.9520   22.1330 C   0  0  0  0  0  0  0  0  0  0  0  0
   15.7780   12.0300   21.8640 O   0  0  0  0  0  0  0  0  0  0  0  0
   12.9340   11.3530   21.9190 C   0  0  0  0  0  0  0  0  0  0  0  0
   11.5350   11.1610   22.4410 C   0  0  0  0  0  0  0  0  0  0  0  0
   10.6910   12.2600   22.5740 C   0  0  0  0  0  0  0  0  0  0  0  0
   11.1100    9.8850   22.8000 C   0  0  0  0  0  0  0  0  0  0  0  0
    9.4030   12.0850   23.0760 C   0  0  0  0  0  0  0  0  0  0  0  0
    9.8210    9.6980   23.2900 C   0  0  0  0  0  0  0  0  0  0  0  0
    8.9760   10.7970   23.4280 C   0  0  0  0  0  0  0  0  0  0  0  0
   19.1740   11.2200   25.0250 C   0  0  0  0  0  0  0  0  0  0  0  0
   17.2180   10.0360   21.1070 C   0  0  1  0  0  0  0  0  0  0  0  0
   18.7540   10.8080   23.6230 C   0  0  0  0  0  0  0  0  0  0  0  0
   19.4140    8.4890   24.1390 C   0  0  2  0  0  0  0  0  0  0  0  0
   18.2170    9.0610   21.9840 C   0  0  0  0  0  0  0  0  0  0  0  0
   18.1190    9.6530   18.9050 C   0  0  0  0  0  0  0  0  0  0  0  0
   16.9050    9.9440   19.6520 C   0  0  2  0  0  0  0  0  0  0  0  0
   18.4870    9.5260   23.4590 C   0  0  2  0  0  0  0  0  0  0  0  0
   20.3910   10.4080   25.4830 C   0  0  0  0  0  0  0  0  0  0  0  0
   18.9960    9.4790   18.3530 N   0  0  0  0  0  0  0  0  0  0  0  0
   16.0250    9.8180   21.7330 N   0  0  0  0  0  0  0  0  0  0  0  0
   20.1210    8.9680   25.3120 N   0  3  0  0  0  0  0  0  0  0  0  0
   16.2960   11.1040   19.2130 O   0  0  0  0  0  0  0  0  0  0  0  0
   19.5640    7.2780   23.6230 O   0  0  0  0  0  0  0  0  0  0  0  0
   14.5929   12.8935   26.3221 H   0  0  0  0  0  0  0  0  0  0  0  0
   15.6824   11.6721   27.0623 H   0  0  0  0  0  0  0  0  0  0  0  0
   13.5044   10.3186   27.4448 H   0  0  0  0  0  0  0  0  0  0  0  0
   12.6770   11.8875   27.1607 H   0  0  0  0  0  0  0  0  0  0  0  0
   12.4226   10.2208   29.6335 H   0  0  0  0  0  0  0  0  0  0  0  0
   12.6203   10.7472   32.0462 H   0  0  0  0  0  0  0  0  0  0  0  0
   14.1001   12.6090   32.7740 H   0  0  0  0  0  0  0  0  0  0  0  0
   15.3550   13.9213   31.0871 H   0  0  0  0  0  0  0  0  0  0  0  0
   15.1531   13.3890   28.6818 H   0  0  0  0  0  0  0  0  0  0  0  0
   13.4648   12.3543   24.1945 H   0  0  0  0  0  0  0  0  0  0  0  0
   13.7934    9.7444   23.0632 H   0  0  0  0  0  0  0  0  0  0  0  0
   13.0237   10.8344   20.9531 H   0  0  0  0  0  0  0  0  0  0  0  0
   13.1116   12.4290   21.7754 H   0  0  0  0  0  0  0  0  0  0  0  0
   11.0343   13.2477   22.2883 H   0  0  0  0  0  0  0  0  0  0  0  0
   11.7810    9.0397   22.6982 H   0  0  0  0  0  0  0  0  0  0  0  0
    8.7395   12.9342   23.1929 H   0  0  0  0  0  0  0  0  0  0  0  0
    9.4776    8.7064   23.5618 H   0  0  0  0  0  0  0  0  0  0  0  0
    7.9730   10.6540   23.8135 H   0  0  0  0  0  0  0  0  0  0  0  0
   18.3393   11.0433   25.7193 H   0  0  0  0  0  0  0  0  0  0  0  0
   19.4316   12.2894   25.0259 H   0  0  0  0  0  0  0  0  0  0  0  0
   17.5695   11.0654   21.2705 H   0  0  0  0  0  0  0  0  0  0  0  0
   19.5692   11.0742   22.9341 H   0  0  0  0  0  0  0  0  0  0  0  0
   17.8506   11.3777   23.3597 H   0  0  0  0  0  0  0  0  0  0  0  0
   18.5904    8.1165   24.7659 H   0  0  0  0  0  0  0  0  0  0  0  0
   19.1840    9.0087   21.4623 H   0  0  0  0  0  0  0  0  0  0  0  0
   17.7658    8.0585   22.0215 H   0  0  0  0  0  0  0  0  0  0  0  0
   16.2014    9.1123   19.4998 H   0  0  0  0  0  0  0  0  0  0  0  0
   17.5216    9.4076   23.9728 H   0  0  0  0  0  0  0  0  0  0  0  0
   20.5930   10.6186   26.5436 H   0  0  0  0  0  0  0  0  0  0  0  0
   21.2667   10.6899   24.8799 H   0  0  0  0  0  0  0  0  0  0  0  0
   15.6815    8.8935   21.8985 H   0  0  0  0  0  0  0  0  0  0  0  0
   21.0152    8.5028   25.3211 H   0  0  0  0  0  0  0  0  0  0  0  0
   19.5828    8.6773   26.1132 H   0  0  0  0  0  0  0  0  0  0  0  0
   15.5097   11.2600   19.7228 H   0  0  0  0  0  0  0  0  0  0  0  0
   19.0032    7.1878   22.8614 H   0  0  0  0  0  0  0  0  0  0  0  0
  1  2  2  0  0  0  0
  1  3  1  0  0  0  0
  3  4  1  0  0  0  0
  3 36  1  0  0  0  0
  3 37  1  0  0  0  0
  4  5  1  0  0  0  0
  4 38  1  0  0  0  0
  4 39  1  0  0  0  0
  5  6  2  0  0  0  0
  5 10  1  0  0  0  0
  6  7  1  0  0  0  0
  6 40  1  0  0  0  0
  7  8  2  0  0  0  0
  7 41  1  0  0  0  0
  8 42  1  0  0  0  0
  9  8  1  0  0  0  0
  9 43  1  0  0  0  0
 10  9  2  0  0  0  0
 10 44  1  0  0  0  0
 11  1  1  0  0  0  0
 11 45  1  0  0  0  0
 12 11  1  0  0  0  0
 12 15  1  0  0  0  0
 12 46  1  1  0  0  0
 13 12  1  0  0  0  0
 13 14  2  0  0  0  0
 15 16  1  0  0  0  0
 15 47  1  0  0  0  0
 15 48  1  0  0  0  0
 16 17  2  0  0  0  0
 16 18  1  0  0  0  0
 17 19  1  0  0  0  0
 17 49  1  0  0  0  0
 18 20  2  0  0  0  0
 18 50  1  0  0  0  0
 19 21  2  0  0  0  0
 19 51  1  0  0  0  0
 20 21  1  0  0  0  0
 20 52  1  0  0  0  0
 21 53  1  0  0  0  0
 22 30  1  0  0  0  0
 22 54  1  0  0  0  0
 22 55  1  0  0  0  0
 23 28  1  0  0  0  0
 23 32  1  0  0  0  0
 23 56  1  1  0  0  0
 24 22  1  0  0  0  0
 24 57  1  0  0  0  0
 24 58  1  0  0  0  0
 25 33  1  0  0  0  0
 25 35  1  0  0  0  0
 25 59  1  1  0  0  0
 26 23  1  0  0  0  0
 26 29  1  0  0  0  0
 26 60  1  0  0  0  0
 26 61  1  0  0  0  0
 27 31  3  0  0  0  0
 28 27  1  0  0  0  0
 28 34  1  0  0  0  0
 28 62  1  6  0  0  0
 29 24  1  0  0  0  0
 29 25  1  0  0  0  0
 29 63  1  1  0  0  0
 30 33  1  0  0  0  0
 30 64  1  0  0  0  0
 30 65  1  0  0  0  0
 32 13  1  0  0  0  0
 32 66  1  0  0  0  0
 33 67  1  0  0  0  0
 33 68  1  0  0  0  0
 34 69  1  0  0  0  0
 35 70  1  0  0  0  0
M  CHG  1  33   1
M  END
