5brn_ligand
 OpenBabel08222323353D

 34 35  0  0  1  0  0  0  0  0999 V2000
  -14.8330   15.3860  -19.4730 N   0  0  0  0  0  0  0  0  0  0  0  0
  -14.6860   14.5030  -18.4210 C   0  0  0  0  0  0  0  0  0  0  0  0
  -14.5180   12.5750  -17.1350 C   0  0  0  0  0  0  0  0  0  0  0  0
  -14.3480   14.5870  -16.0220 C   0  0  0  0  0  0  0  0  0  0  0  0
  -14.7520   16.6180  -18.9930 C   0  0  0  0  0  0  0  0  0  0  0  0
  -19.0000   20.8970  -21.5620 O   0  0  0  0  0  1  0  0  0  0  0  0
  -18.0650   19.8820  -22.1850 P   0  0  0  0  0  0  0  0  0  0  0  0
  -16.6540   20.3920  -22.0930 O   0  0  0  0  0  1  0  0  0  0  0  0
  -18.4460   19.6930  -23.6400 O   0  0  0  0  0  0  0  0  0  0  0  0
  -18.2220   18.2820  -21.2800 C   0  0  0  0  0  0  0  0  0  0  0  0
  -17.3480   17.1580  -21.8700 C   0  0  0  0  0  0  0  0  0  0  0  0
  -17.1140   16.1980  -20.8570 O   0  0  0  0  0  0  0  0  0  0  0  0
  -16.4930   15.0330  -21.3000 C   0  0  2  0  0  0  0  0  0  0  0  0
  -17.1920   13.8020  -20.7370 C   0  0  0  0  0  0  0  0  0  0  0  0
  -18.0190   13.2490  -21.7680 O   0  0  0  0  0  0  0  0  0  0  0  0
  -15.0230   15.0210  -20.8780 C   0  0  0  0  0  0  0  0  0  0  0  0
  -14.6800   13.1530  -18.3090 N   0  0  0  0  0  0  0  0  0  0  0  0
  -14.3530   13.2580  -15.9990 N   0  0  0  0  0  0  0  0  0  0  0  0
  -14.1710   15.3180  -14.8120 O   0  0  0  0  0  0  0  0  0  0  0  0
  -14.5190   15.2800  -17.2660 C   0  0  0  0  0  0  0  0  0  0  0  0
  -14.5650   16.5840  -17.6570 N   0  0  0  0  0  0  0  0  0  0  0  0
  -14.5188   11.4870  -17.0893 H   0  0  0  0  0  0  0  0  0  0  0  0
  -14.8256   17.5260  -19.5897 H   0  0  0  0  0  0  0  0  0  0  0  0
  -19.2737   17.9619  -21.3170 H   0  0  0  0  0  0  0  0  0  0  0  0
  -17.9242   18.4425  -20.2333 H   0  0  0  0  0  0  0  0  0  0  0  0
  -16.3904   17.5743  -22.2160 H   0  0  0  0  0  0  0  0  0  0  0  0
  -17.8698   16.6864  -22.7158 H   0  0  0  0  0  0  0  0  0  0  0  0
  -16.5484   15.0011  -22.3981 H   0  0  0  0  0  0  0  0  0  0  0  0
  -17.8122   14.0872  -19.8745 H   0  0  0  0  0  0  0  0  0  0  0  0
  -16.4437   13.0601  -20.4213 H   0  0  0  0  0  0  0  0  0  0  0  0
  -18.4646   12.4785  -21.4358 H   0  0  0  0  0  0  0  0  0  0  0  0
  -14.6203   14.0096  -21.0359 H   0  0  0  0  0  0  0  0  0  0  0  0
  -14.4716   15.7372  -21.5049 H   0  0  0  0  0  0  0  0  0  0  0  0
  -14.2336   12.7709  -15.1338 H   0  0  0  0  0  0  0  0  0  0  0  0
  1  2  1  0  0  0  0
  1  5  1  0  0  0  0
  2 17  1  0  0  0  0
  2 20  2  0  0  0  0
  3 18  1  0  0  0  0
  3 22  1  0  0  0  0
  4 18  1  0  0  0  0
  4 19  2  0  0  0  0
  5 21  2  0  0  0  0
  5 23  1  0  0  0  0
  7  6  1  0  0  0  0
  7  8  1  0  0  0  0
  7  9  2  0  0  0  0
 10  7  1  0  0  0  0
 10 24  1  0  0  0  0
 10 25  1  0  0  0  0
 11 10  1  0  0  0  0
 11 26  1  0  0  0  0
 11 27  1  0  0  0  0
 12 11  1  0  0  0  0
 13 12  1  0  0  0  0
 13 14  1  0  0  0  0
 13 16  1  0  0  0  0
 13 28  1  6  0  0  0
 14 15  1  0  0  0  0
 14 29  1  0  0  0  0
 14 30  1  0  0  0  0
 15 31  1  0  0  0  0
 16  1  1  0  0  0  0
 16 32  1  0  0  0  0
 16 33  1  0  0  0  0
 17  3  2  0  0  0  0
 18 34  1  0  0  0  0
 20  4  1  0  0  0  0
 20 21  1  0  0  0  0
M  END
