5btr_ligand
 OpenBabel08222323353D

112114  0  0  1  0  0  0  0  0999 V2000
  -18.8160   72.0050   20.9450 N   0  3  0  0  0  0  0  0  0  0  0  0
  -20.0150   71.8570   20.1360 C   0  0  2  0  0  0  0  0  0  0  0  0
  -19.6720   71.5900   18.6730 C   0  0  0  0  0  0  0  0  0  0  0  0
  -20.5090   71.0840   17.9230 O   0  0  0  0  0  0  0  0  0  0  0  0
  -20.9110   73.0920   20.2550 C   0  0  0  0  0  0  0  0  0  0  0  0
  -20.5220   74.2540   19.3560 C   0  0  0  0  0  0  0  0  0  0  0  0
  -21.7340   75.1170   18.9940 C   0  0  0  0  0  0  0  0  0  0  0  0
  -22.3500   75.7410   20.1640 N   0  0  0  0  0  0  0  0  0  0  0  0
  -23.4620   75.3080   20.7500 C   0  0  0  0  0  3  0  0  0  0  0  0
  -24.0960   74.2410   20.2780 N   0  0  0  0  0  0  0  0  0  0  0  0
  -23.9420   75.9440   21.8100 N   0  0  0  0  0  0  0  0  0  0  0  0
  -18.4470   71.9220   18.2690 N   0  0  0  0  0  0  0  0  0  0  0  0
  -18.0080   71.6760   16.8950 C   0  0  2  0  0  0  0  0  0  0  0  0
  -17.1980   70.3920   16.7780 C   0  0  0  0  0  0  0  0  0  0  0  0
  -15.9990   70.4380   16.5090 O   0  0  0  0  0  0  0  0  0  0  0  0
  -17.1730   72.8420   16.3740 C   0  0  0  0  0  0  0  0  0  0  0  0
  -17.7790   74.1820   16.6360 C   0  0  0  0  0  0  0  0  0  0  0  0
  -18.8710   74.6500   15.9400 N   0  0  0  0  0  0  0  0  0  0  0  0
  -17.4440   75.1560   17.5140 C   0  0  0  0  0  0  0  0  0  0  0  0
  -19.1830   75.8580   16.3770 C   0  0  0  0  0  0  0  0  0  0  0  0
  -18.3320   76.1880   17.3310 N   0  0  0  0  0  0  0  0  0  0  0  0
  -17.8440   69.2500   16.9900 N   0  0  0  0  0  0  0  0  0  0  0  0
  -17.1730   67.9700   16.8120 C   0  0  2  0  0  0  0  0  0  0  0  0
  -17.2900   67.5320   15.3690 C   0  0  0  0  0  0  0  0  0  0  0  0
  -18.2630   67.8390   14.6940 O   0  0  0  0  0  0  0  0  0  0  0  0
  -17.7570   66.8990   17.7320 C   0  0  0  0  0  0  0  0  0  0  0  0
  -17.6320   67.2130   19.2100 C   0  0  0  0  0  0  0  0  0  0  0  0
  -18.0660   66.0360   20.0690 C   0  0  0  0  0  0  0  0  0  0  0  0
  -17.9300   66.3430   21.5480 C   0  0  0  0  0  0  0  0  0  0  0  0
  -18.3380   65.1630   22.3630 N   0  3  0  0  0  0  0  0  0  0  0  0
  -23.1440   61.2800   10.4900 C   0  0  0  0  0  0  0  0  0  0  0  0
  -22.7350   62.6450    9.9490 C   0  0  0  0  0  0  0  0  0  0  0  0
  -23.4420   63.2550    8.8480 C   0  0  0  0  0  0  0  0  0  0  0  0
  -23.0180   64.5130    8.3970 C   0  0  0  0  0  0  0  0  0  0  0  0
  -23.6700   65.1320    7.3360 O   0  0  0  0  0  0  0  0  0  0  0  0
  -21.9800   65.1530    8.9620 O   0  0  0  0  0  0  0  0  0  0  0  0
  -21.2950   64.6050    9.9980 C   0  0  0  0  0  0  0  0  0  0  0  0
  -20.1800   65.3660   10.5460 C   0  0  0  0  0  0  0  0  0  0  0  0
  -21.6130   63.3790   10.5320 C   0  0  0  0  0  0  0  0  0  0  0  0
  -20.7990   62.8260   11.6980 C   0  0  0  0  0  0  0  0  0  0  0  0
  -19.7540   63.5420   12.2140 C   0  0  0  0  0  0  0  0  0  0  0  0
  -19.4240   64.8640   11.6450 C   0  0  0  0  0  0  0  0  0  0  0  0
  -18.3020   65.6870   12.1130 N   0  0  0  0  0  0  0  0  0  0  0  0
  -17.4130   65.3880   13.2580 C   0  0  0  0  0  0  0  0  0  0  0  0
  -17.5640   64.4290   13.9340 O   0  0  0  0  0  0  0  0  0  0  0  0
  -16.2780   66.3550   13.5270 C   0  0  1  0  0  0  0  0  0  0  0  0
  -16.2900   66.8070   14.8970 N   0  0  0  0  0  0  0  0  0  0  0  0
  -14.9840   65.6220   13.2160 C   0  0  0  0  0  0  0  0  0  0  0  0
  -14.9660   65.0770   11.7240 C   0  0  0  0  0  0  0  0  0  0  0  0
  -14.1470   63.8120   11.5470 C   0  0  0  0  0  0  0  0  0  0  0  0
  -13.3530   63.8220   10.2060 C   0  0  0  0  0  0  0  0  0  0  0  0
  -12.1890   63.0010   10.2990 N   0  0  0  0  0  0  0  0  0  0  0  0
  -11.9300   62.0280    9.2670 C   0  0  0  0  0  0  0  0  0  0  0  0
  -12.6640   61.9250    8.3710 O   0  0  0  0  0  0  0  0  0  0  0  0
  -10.7210   61.1520    9.3360 C   0  0  0  0  0  0  0  0  0  0  0  0
  -19.0765   72.1798   21.9029 H   0  0  0  0  0  0  0  0  0  0  0  0
  -18.2703   72.7786   20.5987 H   0  0  0  0  0  0  0  0  0  0  0  0
  -18.2699   71.1593   20.8943 H   0  0  0  0  0  0  0  0  0  0  0  0
  -20.5750   70.9905   20.5175 H   0  0  0  0  0  0  0  0  0  0  0  0
  -20.8761   73.4403   21.2978 H   0  0  0  0  0  0  0  0  0  0  0  0
  -21.9392   72.7938   20.0022 H   0  0  0  0  0  0  0  0  0  0  0  0
  -20.0777   73.8569   18.4314 H   0  0  0  0  0  0  0  0  0  0  0  0
  -19.7828   74.8783   19.8793 H   0  0  0  0  0  0  0  0  0  0  0  0
  -22.4830   74.4821   18.4982 H   0  0  0  0  0  0  0  0  0  0  0  0
  -21.4089   75.9086   18.3029 H   0  0  0  0  0  0  0  0  0  0  0  0
  -21.8910   76.5730   20.5614 H   0  0  0  0  0  0  0  0  0  0  0  0
  -24.9572   73.9094   20.7355 H   0  0  0  0  0  0  0  0  0  0  0  0
  -23.7266   73.7449   19.4544 H   0  0  0  0  0  0  0  0  0  0  0  0
  -23.4529   76.7720   22.1789 H   0  0  0  0  0  0  0  0  0  0  0  0
  -24.8039   75.6100   22.2644 H   0  0  0  0  0  0  0  0  0  0  0  0
  -17.8153   72.3475   18.9170 H   0  0  0  0  0  0  0  0  0  0  0  0
  -18.9041   71.5784   16.2646 H   0  0  0  0  0  0  0  0  0  0  0  0
  -17.0511   72.7230   15.2873 H   0  0  0  0  0  0  0  0  0  0  0  0
  -16.1867   72.8065   16.8597 H   0  0  0  0  0  0  0  0  0  0  0  0
  -16.6246   75.1270   18.2307 H   0  0  0  0  0  0  0  0  0  0  0  0
  -20.0023   76.4757   16.0123 H   0  0  0  0  0  0  0  0  0  0  0  0
  -18.3337   77.0756   17.8535 H   0  0  0  0  0  0  0  0  0  0  0  0
  -18.8023   69.2700   17.2751 H   0  0  0  0  0  0  0  0  0  0  0  0
  -16.1085   68.0969   17.0585 H   0  0  0  0  0  0  0  0  0  0  0  0
  -17.2329   65.9521   17.5351 H   0  0  0  0  0  0  0  0  0  0  0  0
  -18.8245   66.7838   17.4930 H   0  0  0  0  0  0  0  0  0  0  0  0
  -18.2660   68.0804   19.4459 H   0  0  0  0  0  0  0  0  0  0  0  0
  -16.5828   67.4531   19.4368 H   0  0  0  0  0  0  0  0  0  0  0  0
  -17.4381   65.1662   19.8260 H   0  0  0  0  0  0  0  0  0  0  0  0
  -19.1179   65.8020   19.8485 H   0  0  0  0  0  0  0  0  0  0  0  0
  -18.5734   67.1985   21.8014 H   0  0  0  0  0  0  0  0  0  0  0  0
  -16.8824   66.5932   21.7715 H   0  0  0  0  0  0  0  0  0  0  0  0
  -18.2424   65.3818   23.3423 H   0  0  0  0  0  0  0  0  0  0  0  0
  -17.7489   64.3774   22.1352 H   0  0  0  0  0  0  0  0  0  0  0  0
  -19.2985   64.9321   22.1626 H   0  0  0  0  0  0  0  0  0  0  0  0
  -24.0035   60.9012    9.9174 H   0  0  0  0  0  0  0  0  0  0  0  0
  -23.4224   61.3741   11.5500 H   0  0  0  0  0  0  0  0  0  0  0  0
  -22.3014   60.5796   10.3929 H   0  0  0  0  0  0  0  0  0  0  0  0
  -24.2849   62.7498    8.3787 H   0  0  0  0  0  0  0  0  0  0  0  0
  -19.9223   66.3256   10.1126 H   0  0  0  0  0  0  0  0  0  0  0  0
  -21.0504   61.8597   12.1201 H   0  0  0  0  0  0  0  0  0  0  0  0
  -19.1716   63.1413   13.0358 H   0  0  0  0  0  0  0  0  0  0  0  0
  -18.1208   66.5316   11.6093 H   0  0  0  0  0  0  0  0  0  0  0  0
  -16.3755   67.2282   12.8653 H   0  0  0  0  0  0  0  0  0  0  0  0
  -15.5290   66.5679   15.5000 H   0  0  0  0  0  0  0  0  0  0  0  0
  -14.8793   64.7731   13.9076 H   0  0  0  0  0  0  0  0  0  0  0  0
  -14.1398   66.3135   13.3538 H   0  0  0  0  0  0  0  0  0  0  0  0
  -14.5440   65.8577   11.0741 H   0  0  0  0  0  0  0  0  0  0  0  0
  -16.0015   64.8659   11.4188 H   0  0  0  0  0  0  0  0  0  0  0  0
  -14.8241   62.9451   11.5538 H   0  0  0  0  0  0  0  0  0  0  0  0
  -13.4356   63.7282   12.3818 H   0  0  0  0  0  0  0  0  0  0  0  0
  -13.0489   64.8535    9.9748 H   0  0  0  0  0  0  0  0  0  0  0  0
  -13.9993   63.4411    9.4015 H   0  0  0  0  0  0  0  0  0  0  0  0
  -11.5607   63.0995   11.0707 H   0  0  0  0  0  0  0  0  0  0  0  0
  -10.7027   60.4830    8.4630 H   0  0  0  0  0  0  0  0  0  0  0  0
  -10.7551   60.5518   10.2572 H   0  0  0  0  0  0  0  0  0  0  0  0
   -9.8154   61.7764    9.3385 H   0  0  0  0  0  0  0  0  0  0  0  0
  1 56  1  0  0  0  0
  1 57  1  0  0  0  0
  1 58  1  0  0  0  0
  2  1  1  0  0  0  0
  2  5  1  0  0  0  0
  2 59  1  1  0  0  0
  3  2  1  0  0  0  0
  3  4  2  0  0  0  0
  5  6  1  0  0  0  0
  5 60  1  0  0  0  0
  5 61  1  0  0  0  0
  6  7  1  0  0  0  0
  6 62  1  0  0  0  0
  6 63  1  0  0  0  0
  7  8  1  0  0  0  0
  7 64  1  0  0  0  0
  7 65  1  0  0  0  0
  8  9  1  0  0  0  0
  8 66  1  0  0  0  0
  9 10  1  0  0  0  0
  9 11  1  0  0  0  0
 10 67  1  0  0  0  0
 10 68  1  0  0  0  0
 11 69  1  0  0  0  0
 11 70  1  0  0  0  0
 12  3  1  0  0  0  0
 12 71  1  0  0  0  0
 13 12  1  0  0  0  0
 13 16  1  0  0  0  0
 13 72  1  6  0  0  0
 14 13  1  0  0  0  0
 14 15  2  0  0  0  0
 16 17  1  0  0  0  0
 16 73  1  0  0  0  0
 16 74  1  0  0  0  0
 17 18  1  0  0  0  0
 17 19  2  0  0  0  0
 18 20  2  0  0  0  0
 19 21  1  0  0  0  0
 19 75  1  0  0  0  0
 20 76  1  0  0  0  0
 21 20  1  0  0  0  0
 21 77  1  0  0  0  0
 22 14  1  0  0  0  0
 22 78  1  0  0  0  0
 23 22  1  0  0  0  0
 23 26  1  0  0  0  0
 23 79  1  1  0  0  0
 24 23  1  0  0  0  0
 24 25  2  0  0  0  0
 26 27  1  0  0  0  0
 26 80  1  0  0  0  0
 26 81  1  0  0  0  0
 27 28  1  0  0  0  0
 27 82  1  0  0  0  0
 27 83  1  0  0  0  0
 28 29  1  0  0  0  0
 28 84  1  0  0  0  0
 28 85  1  0  0  0  0
 29 30  1  0  0  0  0
 29 86  1  0  0  0  0
 29 87  1  0  0  0  0
 30 88  1  0  0  0  0
 30 89  1  0  0  0  0
 30 90  1  0  0  0  0
 31 91  1  0  0  0  0
 31 92  1  0  0  0  0
 31 93  1  0  0  0  0
 32 31  1  0  0  0  0
 32 33  2  0  0  0  0
 33 94  1  0  0  0  0
 34 33  1  0  0  0  0
 34 35  2  0  0  0  0
 36 34  1  0  0  0  0
 37 36  1  0  0  0  0
 37 39  1  0  0  0  0
 38 37  2  0  0  0  0
 38 95  1  0  0  0  0
 39 32  1  0  0  0  0
 40 39  2  0  0  0  0
 40 96  1  0  0  0  0
 41 40  1  0  0  0  0
 41 97  1  0  0  0  0
 42 38  1  0  0  0  0
 42 41  2  0  0  0  0
 43 42  1  0  0  0  0
 43 98  1  0  0  0  0
 44 43  1  0  0  0  0
 44 45  2  0  0  0  0
 46 44  1  0  0  0  0
 46 47  1  0  0  0  0
 46 48  1  0  0  0  0
 46 99  1  6  0  0  0
 47 24  1  0  0  0  0
 47100  1  0  0  0  0
 48 49  1  0  0  0  0
 48101  1  0  0  0  0
 48102  1  0  0  0  0
 49 50  1  0  0  0  0
 49103  1  0  0  0  0
 49104  1  0  0  0  0
 50 51  1  0  0  0  0
 50105  1  0  0  0  0
 50106  1  0  0  0  0
 51 52  1  0  0  0  0
 51107  1  0  0  0  0
 51108  1  0  0  0  0
 52 53  1  0  0  0  0
 52109  1  0  0  0  0
 53 54  2  0  0  0  0
 53 55  1  0  0  0  0
 55110  1  0  0  0  0
 55111  1  0  0  0  0
 55112  1  0  0  0  0
M  CHG  2   1   1  30   1
M  END
