5bve_ligand
 OpenBabel08222323353D

 62 66  0  0  1  0  0  0  0  0999 V2000
   12.2470   -2.9980   15.1010 C   0  0  0  0  0  0  0  0  0  0  0  0
   10.8350   -3.3750   14.9630 C   0  0  0  0  0  0  0  0  0  0  0  0
   18.0070   -1.5960   14.5930 C   0  0  0  0  0  0  0  0  0  0  0  0
   12.1740   -3.2210   17.5300 C   0  0  0  0  0  0  0  0  0  0  0  0
   11.8100   -4.7170   17.6820 C   0  0  0  0  0  0  0  0  0  0  0  0
   11.3940   -5.3200   16.3080 C   0  0  0  0  0  0  0  0  0  0  0  0
    8.9600   -4.7890   15.5530 C   0  0  1  0  0  0  0  0  0  0  0  0
    8.6540   -5.8520   14.4930 C   0  0  0  0  0  0  0  0  0  0  0  0
    7.3280   -6.2630   14.3150 C   0  0  0  0  0  0  0  0  0  0  0  0
    7.0290   -7.2290   13.3600 C   0  0  0  0  0  0  0  0  0  0  0  0
    8.0270   -7.7990   12.5750 C   0  0  0  0  0  0  0  0  0  0  0  0
    9.3500   -7.3850   12.7340 C   0  0  0  0  0  0  0  0  0  0  0  0
    9.6580   -6.4130   13.6860 C   0  0  0  0  0  0  0  0  0  0  0  0
    8.3200   -5.2610   16.8900 C   0  0  0  0  0  0  0  0  0  0  0  0
   19.1800   -2.9840   16.2450 C   0  0  0  0  0  0  0  0  0  0  0  0
   20.6420   -3.4800   16.4360 C   0  0  0  0  0  0  0  0  0  0  0  0
   20.6900   -4.4880   17.6060 C   0  0  0  0  0  0  0  0  0  0  0  0
   12.8550   -2.9680   16.2520 N   0  0  0  0  0  0  0  0  0  0  0  0
   15.6650   -1.7900   14.3590 C   0  0  0  0  0  0  0  0  0  0  0  0
   14.1200   -2.6390   16.1460 C   0  0  0  0  0  0  0  0  0  0  0  0
   14.3670   -2.3690   14.8570 C   0  0  0  0  0  0  0  0  0  0  0  0
   16.8200   -2.1150   14.9890 N   0  0  0  0  0  0  0  0  0  0  0  0
   19.1390   -1.9370   15.2390 N   0  0  0  0  0  0  0  0  0  0  0  0
   13.1000   -2.6060   14.1360 C   0  0  0  0  0  0  0  0  0  0  0  0
   18.7950   -3.4770   18.6880 C   0  0  0  0  0  0  0  0  0  0  0  0
   16.9460   -0.3670   12.9060 C   0  0  0  0  0  0  0  0  0  0  0  0
   10.1480   -2.6790   14.2330 O   0  0  0  0  0  0  0  0  0  0  0  0
   20.1710   -3.8940   18.8140 O   0  0  0  0  0  0  0  0  0  0  0  0
   15.7050   -0.8880   13.2910 C   0  0  0  0  0  0  0  0  0  0  0  0
   10.3980   -4.4990   15.5870 N   0  0  0  0  0  0  0  0  0  0  0  0
    5.3630   -7.6800   13.1290 Cl  0  0  0  0  0  0  0  0  0  0  0  0
   18.7220   -2.3850   17.6030 C   0  0  0  0  0  0  0  0  0  0  0  0
   18.0720   -0.7280   13.5620 N   0  0  0  0  0  0  0  0  0  0  0  0
    8.4350   -4.2170   17.8560 O   0  0  0  0  0  0  0  0  0  0  0  0
   12.8392   -2.9277   18.3555 H   0  0  0  0  0  0  0  0  0  0  0  0
   11.2527   -2.6214   17.5707 H   0  0  0  0  0  0  0  0  0  0  0  0
   10.9730   -4.8158   18.3888 H   0  0  0  0  0  0  0  0  0  0  0  0
   12.6825   -5.2643   18.0681 H   0  0  0  0  0  0  0  0  0  0  0  0
   10.9649   -6.3181   16.4802 H   0  0  0  0  0  0  0  0  0  0  0  0
   12.2925   -5.4104   15.6799 H   0  0  0  0  0  0  0  0  0  0  0  0
    8.4567   -3.8548   15.2633 H   0  0  0  0  0  0  0  0  0  0  0  0
    6.5380   -5.8306   14.9184 H   0  0  0  0  0  0  0  0  0  0  0  0
    7.7780   -8.5601   11.8444 H   0  0  0  0  0  0  0  0  0  0  0  0
   10.1336   -7.8161   12.1215 H   0  0  0  0  0  0  0  0  0  0  0  0
   10.6848   -6.0864   13.8046 H   0  0  0  0  0  0  0  0  0  0  0  0
    8.8435   -6.1579   17.2527 H   0  0  0  0  0  0  0  0  0  0  0  0
    7.2580   -5.4969   16.7271 H   0  0  0  0  0  0  0  0  0  0  0  0
   18.5274   -3.8185   15.9487 H   0  0  0  0  0  0  0  0  0  0  0  0
   21.2942   -2.6235   16.6619 H   0  0  0  0  0  0  0  0  0  0  0  0
   20.9871   -3.9706   15.5139 H   0  0  0  0  0  0  0  0  0  0  0  0
   21.7325   -4.7960   17.7744 H   0  0  0  0  0  0  0  0  0  0  0  0
   20.0843   -5.3693   17.3482 H   0  0  0  0  0  0  0  0  0  0  0  0
   14.8413   -2.5934   16.9606 H   0  0  0  0  0  0  0  0  0  0  0  0
   20.0093   -1.4357   15.0106 H   0  0  0  0  0  0  0  0  0  0  0  0
   12.9019   -2.4905   13.0714 H   0  0  0  0  0  0  0  0  0  0  0  0
   18.4385   -3.0736   19.6472 H   0  0  0  0  0  0  0  0  0  0  0  0
   18.1709   -4.3345   18.3962 H   0  0  0  0  0  0  0  0  0  0  0  0
   17.0046    0.3296   12.0775 H   0  0  0  0  0  0  0  0  0  0  0  0
   14.7971   -0.5993   12.7739 H   0  0  0  0  0  0  0  0  0  0  0  0
   17.6873   -2.0222   17.5150 H   0  0  0  0  0  0  0  0  0  0  0  0
   19.3817   -1.5487   17.8776 H   0  0  0  0  0  0  0  0  0  0  0  0
    7.9830   -3.4434   17.5400 H   0  0  0  0  0  0  0  0  0  0  0  0
  1  2  1  0  0  0  0
  1 24  2  0  0  0  0
  2 27  2  0  0  0  0
  2 30  1  0  0  0  0
  3 23  1  0  0  0  0
  3 33  1  0  0  0  0
  4  5  1  0  0  0  0
  4 35  1  0  0  0  0
  4 36  1  0  0  0  0
  5  6  1  0  0  0  0
  5 37  1  0  0  0  0
  5 38  1  0  0  0  0
  6 30  1  0  0  0  0
  6 39  1  0  0  0  0
  6 40  1  0  0  0  0
  7  8  1  0  0  0  0
  7 14  1  0  0  0  0
  7 41  1  6  0  0  0
  8  9  2  0  0  0  0
  8 13  1  0  0  0  0
  9 10  1  0  0  0  0
  9 42  1  0  0  0  0
 10 11  2  0  0  0  0
 10 31  1  0  0  0  0
 11 43  1  0  0  0  0
 12 11  1  0  0  0  0
 12 44  1  0  0  0  0
 13 12  2  0  0  0  0
 13 45  1  0  0  0  0
 14 34  1  0  0  0  0
 14 46  1  0  0  0  0
 14 47  1  0  0  0  0
 15 16  1  0  0  0  0
 15 32  1  0  0  0  0
 15 48  1  0  0  0  0
 16 17  1  0  0  0  0
 16 49  1  0  0  0  0
 16 50  1  0  0  0  0
 17 28  1  0  0  0  0
 17 51  1  0  0  0  0
 17 52  1  0  0  0  0
 18  1  1  0  0  0  0
 18  4  1  0  0  0  0
 19 22  1  0  0  0  0
 19 29  2  0  0  0  0
 20 18  1  0  0  0  0
 20 21  2  0  0  0  0
 20 53  1  0  0  0  0
 21 19  1  0  0  0  0
 21 24  1  0  0  0  0
 22  3  2  0  0  0  0
 23 15  1  0  0  0  0
 23 54  1  0  0  0  0
 24 55  1  0  0  0  0
 25 32  1  0  0  0  0
 25 56  1  0  0  0  0
 25 57  1  0  0  0  0
 26 33  2  0  0  0  0
 26 58  1  0  0  0  0
 28 25  1  0  0  0  0
 29 26  1  0  0  0  0
 29 59  1  0  0  0  0
 30  7  1  0  0  0  0
 32 60  1  0  0  0  0
 32 61  1  0  0  0  0
 34 62  1  0  0  0  0
M  END
