5c0k_ligand
 OpenBabel08222323353D

 31 30  0  0  1  0  0  0  0  0999 V2000
  -16.2450  -16.0970   -3.1380 C   0  0  0  0  0  0  0  0  0  0  0  0
  -15.4860  -16.8460   -4.2280 C   0  0  0  0  0  0  0  0  0  0  0  0
  -13.9760  -16.6390   -4.0710 C   0  0  0  0  0  0  0  0  0  0  0  0
  -16.3400  -19.3000   -2.0540 C   0  0  0  0  0  0  0  0  0  0  0  0
  -15.7340  -20.0450   -0.8680 C   0  0  2  0  0  0  0  0  0  0  0  0
  -15.2750  -19.0550   -5.4510 C   0  0  0  0  0  0  0  0  0  0  0  0
  -15.8860  -18.3360   -4.2580 C   0  0  1  0  0  0  0  0  0  0  0  0
  -15.4870  -19.0210   -3.0400 N   0  0  0  0  0  0  0  0  0  0  0  0
  -17.5330  -18.9900   -2.0740 O   0  0  0  0  0  0  0  0  0  0  0  0
  -15.4760  -21.5100   -1.1870 C   0  0  0  0  0  0  0  0  0  0  0  0
  -16.6680  -19.9360    0.2850 N   0  3  0  0  0  0  0  0  0  0  0  0
  -14.1680  -19.5940   -5.3460 O   0  0  0  0  0  0  0  0  0  0  0  0
  -15.9910  -19.0550   -6.5650 N   0  0  0  0  0  0  0  0  0  0  0  0
  -15.9408  -15.0399   -3.1396 H   0  0  0  0  0  0  0  0  0  0  0  0
  -16.0158  -16.5430   -2.1589 H   0  0  0  0  0  0  0  0  0  0  0  0
  -17.3259  -16.1677   -3.3291 H   0  0  0  0  0  0  0  0  0  0  0  0
  -15.7769  -16.4116   -5.1958 H   0  0  0  0  0  0  0  0  0  0  0  0
  -13.4464  -17.1860   -4.8650 H   0  0  0  0  0  0  0  0  0  0  0  0
  -13.6544  -17.0158   -3.0889 H   0  0  0  0  0  0  0  0  0  0  0  0
  -13.7431  -15.5666   -4.1465 H   0  0  0  0  0  0  0  0  0  0  0  0
  -14.7769  -19.5714   -0.6042 H   0  0  0  0  0  0  0  0  0  0  0  0
  -16.9813  -18.3900   -4.3437 H   0  0  0  0  0  0  0  0  0  0  0  0
  -14.5308  -19.2951   -2.9369 H   0  0  0  0  0  0  0  0  0  0  0  0
  -15.0407  -22.0057   -0.3068 H   0  0  0  0  0  0  0  0  0  0  0  0
  -14.7763  -21.5835   -2.0326 H   0  0  0  0  0  0  0  0  0  0  0  0
  -16.4244  -22.0001   -1.4522 H   0  0  0  0  0  0  0  0  0  0  0  0
  -16.8349  -18.9636    0.4914 H   0  0  0  0  0  0  0  0  0  0  0  0
  -16.2614  -20.3854    1.0905 H   0  0  0  0  0  0  0  0  0  0  0  0
  -17.5405  -20.3851    0.0543 H   0  0  0  0  0  0  0  0  0  0  0  0
  -15.6423  -19.5115   -7.3835 H   0  0  0  0  0  0  0  0  0  0  0  0
  -16.8804  -18.5985   -6.5877 H   0  0  0  0  0  0  0  0  0  0  0  0
  1 14  1  0  0  0  0
  1 15  1  0  0  0  0
  1 16  1  0  0  0  0
  2  1  1  0  0  0  0
  2  3  1  0  0  0  0
  2 17  1  0  0  0  0
  3 18  1  0  0  0  0
  3 19  1  0  0  0  0
  3 20  1  0  0  0  0
  4  5  1  0  0  0  0
  4  9  2  0  0  0  0
  5 10  1  0  0  0  0
  5 11  1  0  0  0  0
  5 21  1  1  0  0  0
  6 12  2  0  0  0  0
  6 13  1  0  0  0  0
  7  2  1  0  0  0  0
  7  6  1  0  0  0  0
  7  8  1  0  0  0  0
  7 22  1  6  0  0  0
  8  4  1  0  0  0  0
  8 23  1  0  0  0  0
 10 24  1  0  0  0  0
 10 25  1  0  0  0  0
 10 26  1  0  0  0  0
 11 27  1  0  0  0  0
 11 28  1  0  0  0  0
 11 29  1  0  0  0  0
 13 30  1  0  0  0  0
 13 31  1  0  0  0  0
M  CHG  1  11   1
M  END
