5c13_ligand
 OpenBabel08222323353D

113112  0  0  1  0  0  0  0  0999 V2000
   13.7220   -0.1780   33.2540 N   0  3  0  0  0  0  0  0  0  0  0  0
   13.2910    0.8800   34.1950 C   0  0  2  0  0  0  0  0  0  0  0  0
   13.7900    0.5980   35.6060 C   0  0  0  0  0  0  0  0  0  0  0  0
   14.7010   -0.2130   35.8170 O   0  0  0  0  0  0  0  0  0  0  0  0
   11.8050    0.9840   34.1800 C   0  0  0  0  0  0  0  0  0  0  0  0
   13.2270    1.3010   36.5690 N   0  0  0  0  0  0  0  0  0  0  0  0
   13.5220    1.0480   37.9780 C   0  0  2  0  0  0  0  0  0  0  0  0
   12.5700    0.0110   38.5520 C   0  0  0  0  0  0  0  0  0  0  0  0
   11.3470    0.1860   38.4930 O   0  0  0  0  0  0  0  0  0  0  0  0
   13.4530    2.3530   38.7630 C   0  0  0  0  0  0  0  0  0  0  0  0
   14.2170    3.4970   38.1280 C   0  0  0  0  0  0  0  0  0  0  0  0
   13.8940    4.8110   38.8190 C   0  0  0  0  0  0  0  0  0  0  0  0
   12.5450    5.2160   38.4760 N   0  0  0  0  0  0  0  0  0  0  0  0
   11.6110    5.5990   39.3460 C   0  0  0  0  0  3  0  0  0  0  0  0
   11.8630    5.6700   40.6450 N   0  0  0  0  0  0  0  0  0  0  0  0
   10.4060    5.9350   38.9010 N   0  0  0  0  0  0  0  0  0  0  0  0
   13.1310   -1.0720   39.0920 N   0  0  0  0  0  0  0  0  0  0  0  0
   12.3620   -2.1430   39.7170 C   0  0  2  0  0  0  0  0  0  0  0  0
   12.9020   -2.4880   41.1150 C   0  0  0  0  0  0  0  0  0  0  0  0
   14.0470   -2.1400   41.4840 O   0  0  0  0  0  0  0  0  0  0  0  0
   12.3780   -3.4230   38.8510 C   0  0  2  0  0  0  0  0  0  0  0  0
   13.7260   -3.8690   38.6940 O   0  0  0  0  0  0  0  0  0  0  0  0
   11.7530   -3.1600   37.4620 C   0  0  0  0  0  0  0  0  0  0  0  0
   12.0900   -3.1960   41.8950 N   0  0  0  0  0  0  0  0  0  0  0  0
   12.5620   -3.6690   43.1550 C   0  0  1  0  0  0  0  0  0  0  0  0
   12.4730   -2.5500   44.1840 C   0  0  0  0  0  0  0  0  0  0  0  0
   11.0380   -2.1030   44.5330 C   0  0  0  0  0  0  0  0  0  0  0  0
   11.0430   -1.0130   45.6590 C   0  0  0  0  0  0  0  0  0  0  0  0
    9.6380   -0.5100   45.9870 C   0  0  0  0  0  0  0  0  0  0  0  0
    9.4820    0.6090   47.0560 C   0  0  0  0  0  0  0  0  0  0  0  0
    9.9340    0.1530   48.3820 C   0  0  0  0  0  0  0  0  0  0  0  0
   10.2150    1.8950   46.6930 C   0  0  0  0  0  0  0  0  0  0  0  0
    8.0090    0.9300   47.2140 C   0  0  0  0  0  0  0  0  0  0  0  0
   11.8620   -4.9480   43.6470 C   0  0  0  0  0  0  0  0  0  0  0  0
   10.8690   -5.4090   43.1250 O   0  0  0  0  0  0  0  0  0  0  0  0
   12.5700   -5.5950   44.5850 N   0  0  0  0  0  0  0  0  0  0  0  0
   12.1200   -6.8220   45.2810 C   0  0  2  0  0  0  0  0  0  0  0  0
   12.6970   -6.8240   46.6980 C   0  0  0  0  0  0  0  0  0  0  0  0
   13.6950   -6.1700   46.9430 O   0  0  0  0  0  0  0  0  0  0  0  0
   12.6000   -8.0780   44.5740 C   0  0  0  0  0  0  0  0  0  0  0  0
   13.0030   -7.8770   43.1560 C   0  0  0  0  0  0  0  0  0  0  0  0
   13.5010   -9.1580   42.5160 C   0  0  0  0  0  0  0  0  0  0  0  0
   13.9600  -10.0780   43.2100 O   0  0  0  0  0  0  0  0  0  0  0  0
   13.4050   -9.2300   41.1790 N   0  0  0  0  0  0  0  0  0  0  0  0
   12.1140   -7.5960   47.6020 N   0  0  0  0  0  0  0  0  0  0  0  0
   12.7420   -7.8140   48.8960 C   0  0  2  0  0  0  0  0  0  0  0  0
   13.9250   -8.7810   48.7470 C   0  0  0  0  0  0  0  0  0  0  0  0
   15.0050   -8.5340   49.3150 O   0  5  0  0  0  0  0  0  0  0  0  0
   11.7270   -8.3440   49.9250 C   0  0  2  0  0  0  0  0  0  0  0  0
   10.9290   -7.2490   50.3840 O   0  0  0  0  0  0  0  0  0  0  0  0
   12.4100   -8.9590   51.1250 C   0  0  0  0  0  0  0  0  0  0  0  0
   13.8030   -9.8110   48.0580 O   0  0  0  0  0  0  0  0  0  0  0  0
   13.3787    0.0338   32.3302 H   0  0  0  0  0  0  0  0  0  0  0  0
   13.3519   -1.0661   33.5545 H   0  0  0  0  0  0  0  0  0  0  0  0
   14.7289   -0.2221   33.2363 H   0  0  0  0  0  0  0  0  0  0  0  0
   13.7152    1.8388   33.8622 H   0  0  0  0  0  0  0  0  0  0  0  0
   11.4854    1.7705   34.8795 H   0  0  0  0  0  0  0  0  0  0  0  0
   11.3670    0.0221   34.4848 H   0  0  0  0  0  0  0  0  0  0  0  0
   11.4653    1.2363   33.1647 H   0  0  0  0  0  0  0  0  0  0  0  0
   12.5814    2.0261   36.3291 H   0  0  0  0  0  0  0  0  0  0  0  0
   14.5456    0.6523   38.0532 H   0  0  0  0  0  0  0  0  0  0  0  0
   13.8677    2.1752   39.7662 H   0  0  0  0  0  0  0  0  0  0  0  0
   12.3971    2.6487   38.8498 H   0  0  0  0  0  0  0  0  0  0  0  0
   13.9397    3.5704   37.0661 H   0  0  0  0  0  0  0  0  0  0  0  0
   15.2961    3.3009   38.2125 H   0  0  0  0  0  0  0  0  0  0  0  0
   14.6042    5.5835   38.4891 H   0  0  0  0  0  0  0  0  0  0  0  0
   13.9726    4.6818   39.9085 H   0  0  0  0  0  0  0  0  0  0  0  0
   12.2874    5.2070   37.4788 H   0  0  0  0  0  0  0  0  0  0  0  0
   11.1241    5.9689   41.2974 H   0  0  0  0  0  0  0  0  0  0  0  0
   12.7978    5.4263   41.0023 H   0  0  0  0  0  0  0  0  0  0  0  0
   10.1964    5.8845   37.8938 H   0  0  0  0  0  0  0  0  0  0  0  0
    9.6808    6.2461   39.5630 H   0  0  0  0  0  0  0  0  0  0  0  0
   14.1273   -1.1539   39.0673 H   0  0  0  0  0  0  0  0  0  0  0  0
   11.3216   -1.8006   39.8186 H   0  0  0  0  0  0  0  0  0  0  0  0
   11.7956   -4.2050   39.3601 H   0  0  0  0  0  0  0  0  0  0  0  0
   13.7381   -4.6558   38.1619 H   0  0  0  0  0  0  0  0  0  0  0  0
   11.7773   -4.0854   36.8679 H   0  0  0  0  0  0  0  0  0  0  0  0
   12.3262   -2.3768   36.9443 H   0  0  0  0  0  0  0  0  0  0  0  0
   10.7107   -2.8307   37.5853 H   0  0  0  0  0  0  0  0  0  0  0  0
   11.1554   -3.3952   41.6002 H   0  0  0  0  0  0  0  0  0  0  0  0
   13.6255   -3.9200   43.0283 H   0  0  0  0  0  0  0  0  0  0  0  0
   13.0162   -1.6786   43.7895 H   0  0  0  0  0  0  0  0  0  0  0  0
   12.9577   -2.8964   45.1087 H   0  0  0  0  0  0  0  0  0  0  0  0
   10.4648   -2.9752   44.8803 H   0  0  0  0  0  0  0  0  0  0  0  0
   10.5627   -1.6867   43.6326 H   0  0  0  0  0  0  0  0  0  0  0  0
   11.6540   -0.1618   45.3243 H   0  0  0  0  0  0  0  0  0  0  0  0
   11.4846   -1.4463   46.5685 H   0  0  0  0  0  0  0  0  0  0  0  0
    9.0561   -1.3759   46.3358 H   0  0  0  0  0  0  0  0  0  0  0  0
    9.2028   -0.1285   45.0515 H   0  0  0  0  0  0  0  0  0  0  0  0
    9.8100    0.9669   49.1115 H   0  0  0  0  0  0  0  0  0  0  0  0
   10.9947   -0.1336   48.3293 H   0  0  0  0  0  0  0  0  0  0  0  0
    9.3348   -0.7146   48.6953 H   0  0  0  0  0  0  0  0  0  0  0  0
    9.8813    2.2403   45.7033 H   0  0  0  0  0  0  0  0  0  0  0  0
   11.2983    1.7054   46.6691 H   0  0  0  0  0  0  0  0  0  0  0  0
    9.9944    2.6674   47.4444 H   0  0  0  0  0  0  0  0  0  0  0  0
    7.4602    0.0136   47.4767 H   0  0  0  0  0  0  0  0  0  0  0  0
    7.6180    1.3331   46.2682 H   0  0  0  0  0  0  0  0  0  0  0  0
    7.8798    1.6761   48.0119 H   0  0  0  0  0  0  0  0  0  0  0  0
   13.4647   -5.2224   44.8315 H   0  0  0  0  0  0  0  0  0  0  0  0
   11.0209   -6.8285   45.3253 H   0  0  0  0  0  0  0  0  0  0  0  0
   11.7856   -8.8170   44.5974 H   0  0  0  0  0  0  0  0  0  0  0  0
   13.4675   -8.4709   45.1244 H   0  0  0  0  0  0  0  0  0  0  0  0
   13.8065   -7.1267   43.1188 H   0  0  0  0  0  0  0  0  0  0  0  0
   12.1340   -7.5121   42.5889 H   0  0  0  0  0  0  0  0  0  0  0  0
   13.7170  -10.0498   40.6987 H   0  0  0  0  0  0  0  0  0  0  0  0
   13.0215   -8.4639   40.6633 H   0  0  0  0  0  0  0  0  0  0  0  0
   11.2380   -8.0312   47.3943 H   0  0  0  0  0  0  0  0  0  0  0  0
   13.1263   -6.8498   49.2602 H   0  0  0  0  0  0  0  0  0  0  0  0
   11.0872   -9.0991   49.4450 H   0  0  0  0  0  0  0  0  0  0  0  0
   10.2977   -7.5636   51.0205 H   0  0  0  0  0  0  0  0  0  0  0  0
   11.6505   -9.3234   51.8323 H   0  0  0  0  0  0  0  0  0  0  0  0
   13.0369   -8.2016   51.6182 H   0  0  0  0  0  0  0  0  0  0  0  0
   13.0396   -9.7996   50.7978 H   0  0  0  0  0  0  0  0  0  0  0  0
  1  2  1  0  0  0  0
  1 53  1  0  0  0  0
  1 54  1  0  0  0  0
  1 55  1  0  0  0  0
  2  3  1  0  0  0  0
  2  5  1  0  0  0  0
  2 56  1  6  0  0  0
  3  4  2  0  0  0  0
  3  6  1  0  0  0  0
  5 57  1  0  0  0  0
  5 58  1  0  0  0  0
  5 59  1  0  0  0  0
  6  7  1  0  0  0  0
  6 60  1  0  0  0  0
  7  8  1  0  0  0  0
  7 10  1  0  0  0  0
  7 61  1  1  0  0  0
  8  9  2  0  0  0  0
  8 17  1  0  0  0  0
 10 11  1  0  0  0  0
 10 62  1  0  0  0  0
 10 63  1  0  0  0  0
 11 12  1  0  0  0  0
 11 64  1  0  0  0  0
 11 65  1  0  0  0  0
 12 13  1  0  0  0  0
 12 66  1  0  0  0  0
 12 67  1  0  0  0  0
 13 14  1  0  0  0  0
 13 68  1  0  0  0  0
 14 15  1  0  0  0  0
 14 16  1  0  0  0  0
 15 69  1  0  0  0  0
 15 70  1  0  0  0  0
 16 71  1  0  0  0  0
 16 72  1  0  0  0  0
 17 18  1  0  0  0  0
 17 73  1  0  0  0  0
 18 19  1  0  0  0  0
 18 21  1  0  0  0  0
 18 74  1  1  0  0  0
 19 20  2  0  0  0  0
 19 24  1  0  0  0  0
 21 22  1  0  0  0  0
 21 23  1  0  0  0  0
 21 75  1  1  0  0  0
 22 76  1  0  0  0  0
 23 77  1  0  0  0  0
 23 78  1  0  0  0  0
 23 79  1  0  0  0  0
 24 25  1  0  0  0  0
 24 80  1  0  0  0  0
 25 26  1  0  0  0  0
 25 34  1  0  0  0  0
 25 81  1  6  0  0  0
 26 27  1  0  0  0  0
 26 82  1  0  0  0  0
 26 83  1  0  0  0  0
 27 28  1  0  0  0  0
 27 84  1  0  0  0  0
 27 85  1  0  0  0  0
 28 29  1  0  0  0  0
 28 86  1  0  0  0  0
 28 87  1  0  0  0  0
 29 30  1  0  0  0  0
 29 88  1  0  0  0  0
 29 89  1  0  0  0  0
 30 31  1  0  0  0  0
 30 32  1  0  0  0  0
 30 33  1  0  0  0  0
 31 90  1  0  0  0  0
 31 91  1  0  0  0  0
 31 92  1  0  0  0  0
 32 93  1  0  0  0  0
 32 94  1  0  0  0  0
 32 95  1  0  0  0  0
 33 96  1  0  0  0  0
 33 97  1  0  0  0  0
 33 98  1  0  0  0  0
 34 35  2  0  0  0  0
 34 36  1  0  0  0  0
 36 37  1  0  0  0  0
 36 99  1  0  0  0  0
 37 38  1  0  0  0  0
 37 40  1  0  0  0  0
 37100  1  1  0  0  0
 38 39  2  0  0  0  0
 38 45  1  0  0  0  0
 40 41  1  0  0  0  0
 40101  1  0  0  0  0
 40102  1  0  0  0  0
 41 42  1  0  0  0  0
 41103  1  0  0  0  0
 41104  1  0  0  0  0
 42 43  2  0  0  0  0
 42 44  1  0  0  0  0
 44105  1  0  0  0  0
 44106  1  0  0  0  0
 45 46  1  0  0  0  0
 45107  1  0  0  0  0
 46 47  1  0  0  0  0
 46 49  1  0  0  0  0
 46108  1  1  0  0  0
 47 48  1  0  0  0  0
 47 52  2  0  0  0  0
 49 50  1  0  0  0  0
 49 51  1  0  0  0  0
 49109  1  6  0  0  0
 50110  1  0  0  0  0
 51111  1  0  0  0  0
 51112  1  0  0  0  0
 51113  1  0  0  0  0
M  CHG  2   1   1  48  -1
M  END
