5c2e_ligand
 OpenBabel08222323353D

 46 48  0  0  0  0  0  0  0  0999 V2000
   -9.0610   -2.4360   18.3300 C   0  0  0  0  0  0  0  0  0  0  0  0
   -9.1310   -2.7960   15.8360 C   0  0  0  0  0  0  0  0  0  0  0  0
  -10.2340   -1.6610   18.1960 N   0  0  0  0  0  0  0  0  0  0  0  0
  -10.6270   -0.9470   19.4020 C   0  0  0  0  0  0  0  0  0  0  0  0
   -8.2280    2.0300   20.1150 C   0  0  0  0  0  0  0  0  0  0  0  0
  -10.0570    1.0870   20.9030 C   0  0  0  0  0  0  0  0  0  0  0  0
   -7.0950    2.9620   19.9720 C   0  0  0  0  0  0  0  0  0  0  0  0
  -11.1530    1.0220   21.8810 C   0  0  0  0  0  0  0  0  0  0  0  0
   -5.2870   -4.4560   22.3240 C   0  0  0  0  0  0  0  0  0  0  0  0
   -5.9600   -6.4270   23.5320 N   0  0  0  0  0  0  0  0  0  0  0  0
   -6.8320   -7.0600   24.3300 C   0  0  0  0  0  0  0  0  0  0  0  0
   -8.2670   -5.1890   24.4950 C   0  0  0  0  0  0  0  0  0  0  0  0
   -7.3900   -4.5080   23.6770 C   0  0  0  0  0  0  0  0  0  0  0  0
   -7.3580   -3.7220   17.3500 C   0  0  0  0  0  0  0  0  0  0  0  0
   -6.7490   -3.9290   18.5210 N   0  0  0  0  0  0  0  0  0  0  0  0
   -6.8380   -3.4760   20.8380 O   0  0  0  0  0  0  0  0  0  0  0  0
   -8.4300    0.7450   18.9980 S   0  0  0  0  0  0  0  0  0  0  0  0
   -6.5520   -4.4640   16.0200 Cl  0  0  0  0  0  0  0  0  0  0  0  0
   -7.3620   -3.3560   19.5630 C   0  0  0  0  0  0  0  0  0  0  0  0
   -8.4790   -2.6230   19.5260 N   0  0  0  0  0  0  0  0  0  0  0  0
   -8.5140   -2.9870   17.1850 C   0  0  0  0  0  0  0  0  0  0  0  0
   -9.8420    0.2380   19.8350 C   0  0  0  0  0  0  0  0  0  0  0  0
   -9.1450    2.0980   21.0530 N   0  0  0  0  0  0  0  0  0  0  0  0
   -5.7790   -4.4260   20.8930 C   0  0  0  0  0  0  0  0  0  0  0  0
   -6.2590   -5.1590   23.2170 C   0  0  0  0  0  0  0  0  0  0  0  0
   -7.9850   -6.4960   24.8330 C   0  0  0  0  0  0  0  0  0  0  0  0
  -10.0391   -2.1826   15.9317 H   0  0  0  0  0  0  0  0  0  0  0  0
   -9.3936   -3.7759   15.4108 H   0  0  0  0  0  0  0  0  0  0  0  0
   -8.4142   -2.2889   15.1734 H   0  0  0  0  0  0  0  0  0  0  0  0
  -10.7677   -1.6056   17.3168 H   0  0  0  0  0  0  0  0  0  0  0  0
  -10.5955   -1.6720   20.2286 H   0  0  0  0  0  0  0  0  0  0  0  0
  -11.6625   -0.6079   19.2509 H   0  0  0  0  0  0  0  0  0  0  0  0
   -7.1337    3.7122   20.7755 H   0  0  0  0  0  0  0  0  0  0  0  0
   -7.1559    3.4663   18.9963 H   0  0  0  0  0  0  0  0  0  0  0  0
   -6.1499    2.4031   20.0375 H   0  0  0  0  0  0  0  0  0  0  0  0
  -11.0441    1.8397   22.6086 H   0  0  0  0  0  0  0  0  0  0  0  0
  -11.1185    0.0564   22.4068 H   0  0  0  0  0  0  0  0  0  0  0  0
  -12.1163    1.1213   21.3593 H   0  0  0  0  0  0  0  0  0  0  0  0
   -5.1555   -3.4234   22.6797 H   0  0  0  0  0  0  0  0  0  0  0  0
   -4.3216   -4.9821   22.3603 H   0  0  0  0  0  0  0  0  0  0  0  0
   -6.6151   -8.0876   24.5985 H   0  0  0  0  0  0  0  0  0  0  0  0
   -9.1631   -4.7050   24.8661 H   0  0  0  0  0  0  0  0  0  0  0  0
   -7.5838   -3.4784   23.3987 H   0  0  0  0  0  0  0  0  0  0  0  0
   -6.1473   -5.4199   20.5990 H   0  0  0  0  0  0  0  0  0  0  0  0
   -4.9640   -4.1229   20.2193 H   0  0  0  0  0  0  0  0  0  0  0  0
   -8.6499   -7.0627   25.4748 H   0  0  0  0  0  0  0  0  0  0  0  0
  1  3  1  0  0  0  0
  1 20  2  0  0  0  0
  2 27  1  0  0  0  0
  2 28  1  0  0  0  0
  2 29  1  0  0  0  0
  3  4  1  0  0  0  0
  3 30  1  0  0  0  0
  4 22  1  0  0  0  0
  4 31  1  0  0  0  0
  4 32  1  0  0  0  0
  5  7  1  0  0  0  0
  5 17  1  0  0  0  0
  6  8  1  0  0  0  0
  6 23  1  0  0  0  0
  7 33  1  0  0  0  0
  7 34  1  0  0  0  0
  7 35  1  0  0  0  0
  8 36  1  0  0  0  0
  8 37  1  0  0  0  0
  8 38  1  0  0  0  0
  9 25  1  0  0  0  0
  9 39  1  0  0  0  0
  9 40  1  0  0  0  0
 10 11  2  0  0  0  0
 11 26  1  0  0  0  0
 11 41  1  0  0  0  0
 12 26  2  0  0  0  0
 12 42  1  0  0  0  0
 13 12  1  0  0  0  0
 13 43  1  0  0  0  0
 14 18  1  0  0  0  0
 14 21  2  0  0  0  0
 15 14  1  0  0  0  0
 16 19  1  0  0  0  0
 16 24  1  0  0  0  0
 17 22  1  0  0  0  0
 19 15  2  0  0  0  0
 19 20  1  0  0  0  0
 21  1  1  0  0  0  0
 21  2  1  0  0  0  0
 22  6  2  0  0  0  0
 23  5  2  0  0  0  0
 24  9  1  0  0  0  0
 24 44  1  0  0  0  0
 24 45  1  0  0  0  0
 25 10  1  0  0  0  0
 25 13  2  0  0  0  0
 26 46  1  0  0  0  0
M  END
