5c3k_ligand
 OpenBabel08222323353D

 26 26  0  0  1  0  0  0  0  0999 V2000
  -15.6040  -21.4700   -0.8850 C   0  0  0  0  0  0  0  0  0  0  0  0
  -15.8300  -19.9660   -0.9770 C   0  0  2  0  0  0  0  0  0  0  0  0
  -16.8570  -19.5420    0.0200 N   0  3  0  0  0  0  0  0  0  0  0  0
  -16.2780  -19.5540   -2.3780 C   0  0  0  0  0  0  0  0  0  0  0  0
  -17.4550  -19.2800   -2.6110 O   0  0  0  0  0  0  0  0  0  0  0  0
  -15.3820  -19.3640   -4.7030 C   0  0  0  0  0  0  0  0  0  0  0  0
  -16.5520  -19.1370   -5.4250 C   0  0  0  0  0  0  0  0  0  0  0  0
  -16.4720  -19.0060   -6.7920 C   0  0  0  0  0  0  0  0  0  0  0  0
  -15.2450  -19.1020   -7.4140 C   0  0  0  0  0  0  0  0  0  0  0  0
  -14.0830  -19.3340   -6.6380 C   0  0  0  0  0  0  0  0  0  0  0  0
  -15.2990  -19.5200   -3.3100 N   0  0  0  0  0  0  0  0  0  0  0  0
  -12.8760  -19.4350   -7.1840 N   0  0  0  0  0  0  0  0  0  0  0  0
  -14.1810  -19.4610   -5.2850 N   0  0  0  0  0  0  0  0  0  0  0  0
  -14.8463  -21.7727   -1.6228 H   0  0  0  0  0  0  0  0  0  0  0  0
  -16.5477  -21.9959   -1.0918 H   0  0  0  0  0  0  0  0  0  0  0  0
  -15.2547  -21.7272    0.1259 H   0  0  0  0  0  0  0  0  0  0  0  0
  -14.8821  -19.4568   -0.7488 H   0  0  0  0  0  0  0  0  0  0  0  0
  -17.0001  -18.5465   -0.0477 H   0  0  0  0  0  0  0  0  0  0  0  0
  -16.5397  -19.7734    0.9484 H   0  0  0  0  0  0  0  0  0  0  0  0
  -17.7246  -20.0197   -0.1674 H   0  0  0  0  0  0  0  0  0  0  0  0
  -17.5078  -19.0650   -4.9187 H   0  0  0  0  0  0  0  0  0  0  0  0
  -17.3675  -18.8285   -7.3764 H   0  0  0  0  0  0  0  0  0  0  0  0
  -15.1702  -19.0005   -8.4906 H   0  0  0  0  0  0  0  0  0  0  0  0
  -14.3711  -19.6218   -2.9513 H   0  0  0  0  0  0  0  0  0  0  0  0
  -12.0535  -19.6041   -6.5876 H   0  0  0  0  0  0  0  0  0  0  0  0
  -12.7628  -19.3442   -8.2037 H   0  0  0  0  0  0  0  0  0  0  0  0
  1 14  1  0  0  0  0
  1 15  1  0  0  0  0
  1 16  1  0  0  0  0
  2  1  1  0  0  0  0
  2  3  1  0  0  0  0
  2 17  1  1  0  0  0
  3 18  1  0  0  0  0
  3 19  1  0  0  0  0
  3 20  1  0  0  0  0
  4  2  1  0  0  0  0
  4  5  2  0  0  0  0
  6  7  2  0  0  0  0
  6 11  1  0  0  0  0
  6 13  1  0  0  0  0
  7  8  1  0  0  0  0
  7 21  1  0  0  0  0
  8  9  2  0  0  0  0
  8 22  1  0  0  0  0
  9 10  1  0  0  0  0
  9 23  1  0  0  0  0
 10 12  1  0  0  0  0
 10 13  2  0  0  0  0
 11  4  1  0  0  0  0
 11 24  1  0  0  0  0
 12 25  1  0  0  0  0
 12 26  1  0  0  0  0
M  CHG  1   3   1
M  END
