5c4s_ligand
 OpenBabel08222323353D

 42 45  0  0  0  0  0  0  0  0999 V2000
  -38.9170   25.7350   28.7600 C   0  0  0  0  0  0  0  0  0  0  0  0
  -38.9240   24.4490   29.2810 C   0  0  0  0  0  0  0  0  0  0  0  0
  -38.2840   24.2000   30.4940 C   0  0  0  0  0  0  0  0  0  0  0  0
  -37.6100   25.2190   31.2040 C   0  0  0  0  0  0  0  0  0  0  0  0
  -37.6430   26.4850   30.6250 C   0  0  0  0  0  0  0  0  0  0  0  0
  -37.0840   24.5680   32.3880 C   0  0  0  0  0  0  0  0  0  0  0  0
  -38.6160   21.7510   30.9790 C   0  0  0  0  0  0  0  0  0  0  0  0
  -37.3780   18.4640   33.4730 C   0  0  0  0  0  0  0  0  0  0  0  0
  -36.4830   19.0320   32.5780 C   0  0  0  0  0  0  0  0  0  0  0  0
  -37.7400   26.9380   33.8050 F   0  0  0  0  0  0  0  0  0  0  0  0
  -36.5760   26.3260   34.1230 C   0  0  0  0  0  0  0  0  0  0  0  0
  -35.7630   26.9400   35.0440 C   0  0  0  0  0  0  0  0  0  0  0  0
  -34.5640   26.3250   35.4040 C   0  0  0  0  0  0  0  0  0  0  0  0
  -33.6680   26.9920   36.4200 C   0  0  0  0  0  0  0  0  0  0  0  0
  -34.0500   28.0940   36.8800 O   0  5  0  0  0  0  0  0  0  0  0  0
  -32.5940   26.4230   36.7490 O   0  0  0  0  0  0  0  0  0  0  0  0
  -34.2290   25.0930   34.8280 C   0  0  0  0  0  0  0  0  0  0  0  0
  -35.0690   24.4950   33.9000 C   0  0  0  0  0  0  0  0  0  0  0  0
  -36.2640   25.1190   33.5050 C   0  0  0  0  0  0  0  0  0  0  0  0
  -37.0230   27.4960   31.2700 F   0  0  0  0  0  0  0  0  0  0  0  0
  -38.2760   26.7660   29.4330 C   0  0  0  0  0  0  0  0  0  0  0  0
  -37.4070   23.2850   32.4150 N   0  0  0  0  0  0  0  0  0  0  0  0
  -38.1480   23.0470   31.2520 N   0  0  0  0  0  0  0  0  0  0  0  0
  -39.3120   21.5230   29.9980 O   0  0  0  0  0  0  0  0  0  0  0  0
  -38.1840   20.6220   31.8890 C   0  0  0  0  0  0  0  0  0  0  0  0
  -36.8890   20.1140   31.8040 C   0  0  0  0  0  0  0  0  0  0  0  0
  -35.7450   20.8650   30.7390 Cl  0  0  0  0  0  0  0  0  0  0  0  0
  -38.6660   18.9670   33.5920 C   0  0  0  0  0  0  0  0  0  0  0  0
  -39.0840   20.0410   32.8060 C   0  0  0  0  0  0  0  0  0  0  0  0
  -40.5000   20.5330   32.9300 C   0  0  0  0  0  0  0  0  0  0  0  0
  -41.2570   20.1300   31.9230 F   0  0  0  0  0  0  0  0  0  0  0  0
  -40.5850   21.8770   32.9330 F   0  0  0  0  0  0  0  0  0  0  0  0
  -41.0850   20.1310   34.0430 F   0  0  0  0  0  0  0  0  0  0  0  0
  -39.4165   25.9363   27.8192 H   0  0  0  0  0  0  0  0  0  0  0  0
  -39.4222   23.6460   28.7500 H   0  0  0  0  0  0  0  0  0  0  0  0
  -37.0696   17.6225   34.0828 H   0  0  0  0  0  0  0  0  0  0  0  0
  -35.4781   18.6368   32.4829 H   0  0  0  0  0  0  0  0  0  0  0  0
  -36.0488   27.8883   35.4845 H   0  0  0  0  0  0  0  0  0  0  0  0
  -33.3046   24.6022   35.1101 H   0  0  0  0  0  0  0  0  0  0  0  0
  -34.8001   23.5349   33.4746 H   0  0  0  0  0  0  0  0  0  0  0  0
  -38.2732   27.7720   29.0293 H   0  0  0  0  0  0  0  0  0  0  0  0
  -39.3533   18.5214   34.3020 H   0  0  0  0  0  0  0  0  0  0  0  0
  1 21  1  0  0  0  0
  1 34  1  0  0  0  0
  2  1  2  0  0  0  0
  2 35  1  0  0  0  0
  3  2  1  0  0  0  0
  3  4  2  0  0  0  0
  4  5  1  0  0  0  0
  5 20  1  0  0  0  0
  5 21  2  0  0  0  0
  6  4  1  0  0  0  0
  6 19  1  0  0  0  0
  7 23  1  0  0  0  0
  7 24  2  0  0  0  0
  8 28  1  0  0  0  0
  8 36  1  0  0  0  0
  9  8  2  0  0  0  0
  9 37  1  0  0  0  0
 11 10  1  0  0  0  0
 11 12  2  0  0  0  0
 12 13  1  0  0  0  0
 12 38  1  0  0  0  0
 13 14  1  0  0  0  0
 14 15  1  0  0  0  0
 14 16  2  0  0  0  0
 17 13  2  0  0  0  0
 17 39  1  0  0  0  0
 18 17  1  0  0  0  0
 18 40  1  0  0  0  0
 19 11  1  0  0  0  0
 19 18  2  0  0  0  0
 21 41  1  0  0  0  0
 22  6  2  0  0  0  0
 23  3  1  0  0  0  0
 23 22  1  0  0  0  0
 25  7  1  0  0  0  0
 25 26  2  0  0  0  0
 25 29  1  0  0  0  0
 26  9  1  0  0  0  0
 26 27  1  0  0  0  0
 28 29  2  0  0  0  0
 28 42  1  0  0  0  0
 29 30  1  0  0  0  0
 30 31  1  0  0  0  0
 30 32  1  0  0  0  0
 30 33  1  0  0  0  0
M  CHG  1  15  -1
M  END
