5c5h_ligand
 OpenBabel08222323353D

 59 62  0  0  1  0  0  0  0  0999 V2000
   98.1610  -23.5510  -16.8210 C   0  0  0  0  0  0  0  0  0  0  0  0
   97.2350  -23.8830  -17.7220 C   0  0  0  0  0  0  0  0  0  0  0  0
   96.0030  -24.2160  -17.3210 C   0  0  0  0  0  0  0  0  0  0  0  0
   99.0790  -23.4400  -18.7620 C   0  0  0  0  0  0  0  0  0  0  0  0
   95.6410  -24.2230  -16.0280 N   0  0  0  0  0  0  0  0  0  0  0  0
   97.8780  -23.5380  -15.5150 N   0  0  0  0  0  0  0  0  0  0  0  0
   97.7930  -22.7310  -28.0100 O   0  5  0  0  0  0  0  0  0  0  0  0
   97.7480  -22.7710  -26.7590 C   0  0  0  0  0  0  0  0  0  0  0  0
   97.9030  -23.8630  -26.1640 O   0  0  0  0  0  0  0  0  0  0  0  0
   97.4500  -21.6030  -26.0440 C   0  0  0  0  0  0  0  0  0  0  0  0
   96.2030  -21.0380  -26.3110 C   0  0  0  0  0  0  0  0  0  0  0  0
   95.7950  -19.8690  -25.6660 C   0  0  0  0  0  0  0  0  0  0  0  0
   96.6280  -19.2590  -24.7410 C   0  0  0  0  0  0  0  0  0  0  0  0
   97.8690  -19.8200  -24.4600 C   0  0  0  0  0  0  0  0  0  0  0  0
   98.3010  -21.0000  -25.0940 C   0  0  0  0  0  0  0  0  0  0  0  0
   99.5690  -21.5230  -24.7950 C   0  0  0  0  0  0  0  0  0  0  0  0
  100.2640  -22.0390  -25.6750 O   0  0  0  0  0  0  0  0  0  0  0  0
  100.1020  -21.3660  -23.3500 C   0  0  0  0  0  0  0  0  0  0  0  0
  101.5600  -21.8020  -23.2680 C   0  0  0  0  0  0  0  0  0  0  0  0
  102.2240  -21.3720  -21.9400 C   0  0  0  0  0  0  0  0  0  0  0  0
  101.6330  -20.7550  -21.0610 O   0  0  0  0  0  0  0  0  0  0  0  0
  103.4850  -21.7760  -21.8260 N   0  0  0  0  0  0  0  0  0  0  0  0
  104.3240  -21.3210  -20.5560 S   0  0  0  0  0  0  0  0  0  0  0  0
  104.4910  -19.8160  -20.6940 O   0  0  0  0  0  0  0  0  0  0  0  0
  105.6790  -21.9790  -20.6340 O   0  0  0  0  0  0  0  0  0  0  0  0
  103.6740  -21.6470  -19.2090 O   0  0  0  0  0  0  0  0  0  0  0  0
  103.1880  -22.9490  -19.0370 C   0  0  0  0  0  0  0  0  0  0  0  0
  102.6190  -22.9640  -17.6400 C   0  0  1  0  0  0  0  0  0  0  0  0
  101.3960  -22.2150  -17.6640 O   0  0  0  0  0  0  0  0  0  0  0  0
  102.1800  -24.3540  -17.3080 C   0  0  1  0  0  0  0  0  0  0  0  0
  103.3010  -25.0930  -16.8630 O   0  0  0  0  0  0  0  0  0  0  0  0
  101.1980  -24.0780  -16.1840 C   0  0  1  0  0  0  0  0  0  0  0  0
  101.8970  -23.7060  -15.0120 O   0  0  0  0  0  0  0  0  0  0  0  0
  100.4800  -22.8740  -16.7320 C   0  0  2  0  0  0  0  0  0  0  0  0
   99.2870  -23.2840  -17.4620 N   0  0  0  0  0  0  0  0  0  0  0  0
   97.8050  -23.8160  -18.9290 N   0  0  0  0  0  0  0  0  0  0  0  0
   96.6010  -23.8710  -15.0700 C   0  0  0  0  0  0  0  0  0  0  0  0
   95.1290  -24.5340  -18.2580 N   0  0  0  0  0  0  0  0  0  0  0  0
   99.8129  -23.2893  -19.5523 H   0  0  0  0  0  0  0  0  0  0  0  0
   95.5427  -21.5123  -27.0280 H   0  0  0  0  0  0  0  0  0  0  0  0
   94.8257  -19.4378  -25.8888 H   0  0  0  0  0  0  0  0  0  0  0  0
   96.3140  -18.3505  -24.2399 H   0  0  0  0  0  0  0  0  0  0  0  0
   98.5175  -19.3382  -23.7372 H   0  0  0  0  0  0  0  0  0  0  0  0
   99.4995  -21.9887  -22.6723 H   0  0  0  0  0  0  0  0  0  0  0  0
  100.0221  -20.3115  -23.0474 H   0  0  0  0  0  0  0  0  0  0  0  0
  102.1130  -21.3484  -24.1037 H   0  0  0  0  0  0  0  0  0  0  0  0
  101.6072  -22.8980  -23.3490 H   0  0  0  0  0  0  0  0  0  0  0  0
  103.8986  -22.3564  -22.5275 H   0  0  0  0  0  0  0  0  0  0  0  0
  104.0021  -23.6826  -19.1321 H   0  0  0  0  0  0  0  0  0  0  0  0
  102.4052  -23.1718  -19.7770 H   0  0  0  0  0  0  0  0  0  0  0  0
  103.3395  -22.5701  -16.9081 H   0  0  0  0  0  0  0  0  0  0  0  0
  101.7002  -24.8610  -18.1581 H   0  0  0  0  0  0  0  0  0  0  0  0
  103.0308  -25.9784  -16.6497 H   0  0  0  0  0  0  0  0  0  0  0  0
  100.5251  -24.9262  -15.9899 H   0  0  0  0  0  0  0  0  0  0  0  0
  102.4783  -24.4117  -14.7539 H   0  0  0  0  0  0  0  0  0  0  0  0
  100.2031  -22.1918  -15.9148 H   0  0  0  0  0  0  0  0  0  0  0  0
   96.3570  -23.8582  -14.0139 H   0  0  0  0  0  0  0  0  0  0  0  0
   94.1678  -24.7973  -17.9977 H   0  0  0  0  0  0  0  0  0  0  0  0
   95.4083  -24.5188  -19.2493 H   0  0  0  0  0  0  0  0  0  0  0  0
  1  2  2  0  0  0  0
  1  6  1  0  0  0  0
  2  3  1  0  0  0  0
  3  5  2  0  0  0  0
  3 38  1  0  0  0  0
  4 36  2  0  0  0  0
  4 39  1  0  0  0  0
  6 37  2  0  0  0  0
  8  7  1  0  0  0  0
  8  9  2  0  0  0  0
 10  8  1  0  0  0  0
 10 11  2  0  0  0  0
 11 12  1  0  0  0  0
 11 40  1  0  0  0  0
 12 41  1  0  0  0  0
 13 12  2  0  0  0  0
 13 42  1  0  0  0  0
 14 13  1  0  0  0  0
 14 43  1  0  0  0  0
 15 10  1  0  0  0  0
 15 14  2  0  0  0  0
 16 15  1  0  0  0  0
 16 17  2  0  0  0  0
 18 16  1  0  0  0  0
 18 44  1  0  0  0  0
 18 45  1  0  0  0  0
 19 18  1  0  0  0  0
 19 46  1  0  0  0  0
 19 47  1  0  0  0  0
 20 19  1  0  0  0  0
 20 21  2  0  0  0  0
 22 20  1  0  0  0  0
 22 48  1  0  0  0  0
 23 22  1  0  0  0  0
 23 24  2  0  0  0  0
 23 25  2  0  0  0  0
 26 23  1  0  0  0  0
 27 26  1  0  0  0  0
 27 49  1  0  0  0  0
 27 50  1  0  0  0  0
 28 27  1  0  0  0  0
 28 51  1  1  0  0  0
 29 28  1  0  0  0  0
 30 28  1  0  0  0  0
 30 31  1  0  0  0  0
 30 52  1  6  0  0  0
 31 53  1  0  0  0  0
 32 30  1  0  0  0  0
 32 33  1  0  0  0  0
 32 54  1  1  0  0  0
 33 55  1  0  0  0  0
 34 29  1  0  0  0  0
 34 32  1  0  0  0  0
 34 35  1  0  0  0  0
 34 56  1  1  0  0  0
 35  1  1  0  0  0  0
 35  4  1  0  0  0  0
 36  2  1  0  0  0  0
 37  5  1  0  0  0  0
 37 57  1  0  0  0  0
 38 58  1  0  0  0  0
 38 59  1  0  0  0  0
M  CHG  1   7  -1
M  END
