5c6o_ligand
 OpenBabel08222323353D

 72 73  0  0  1  0  0  0  0  0999 V2000
    9.6390  -19.9580  -26.0830 C   0  0  0  0  0  0  0  0  0  0  0  0
    8.9160  -19.5430  -24.8560 O   0  0  0  0  0  0  0  0  0  0  0  0
    9.4530  -18.4160  -24.2960 C   0  0  0  0  0  0  0  0  0  0  0  0
    9.1510  -17.1400  -24.7870 C   0  0  0  0  0  0  0  0  0  0  0  0
   10.3090  -18.5670  -23.1960 C   0  0  0  0  0  0  0  0  0  0  0  0
   10.6110  -19.8240  -22.7210 O   0  0  0  0  0  0  0  0  0  0  0  0
    9.3780  -20.6540  -22.1390 C   0  0  0  0  0  0  0  0  0  0  0  0
   10.8700  -17.4300  -22.6140 C   0  0  0  0  0  0  0  0  0  0  0  0
   10.5550  -16.1640  -23.1240 C   0  0  0  0  0  0  0  0  0  0  0  0
    9.6970  -15.9770  -24.2230 C   0  0  0  0  0  0  0  0  0  0  0  0
    9.3410  -14.6940  -24.7770 C   0  0  2  0  0  0  0  0  0  0  0  0
    8.6510  -13.7570  -23.7120 C   0  0  0  0  0  0  0  0  0  0  0  0
    8.4390  -12.3000  -24.1760 C   0  0  0  0  0  0  0  0  0  0  0  0
    9.3190  -13.8000  -22.3190 C   0  0  0  0  0  0  0  0  0  0  0  0
    8.3150  -14.9820  -25.7660 C   0  0  0  0  0  0  0  0  0  0  0  0
    7.4550  -15.1940  -26.5720 N   0  0  0  0  0  0  0  0  0  0  0  0
   10.5040  -14.1130  -25.6570 C   0  0  0  0  0  0  0  0  0  0  0  0
   11.2760  -12.8710  -25.1580 C   0  0  0  0  0  0  0  0  0  0  0  0
   11.0430  -11.6570  -26.0720 C   0  0  0  0  0  0  0  0  0  0  0  0
   11.9330  -11.5480  -27.2480 N   0  3  1  0  0  0  0  0  0  0  0  0
   13.0270  -12.5390  -27.3040 C   0  0  0  0  0  0  0  0  0  0  0  0
   11.0930  -11.5950  -28.4560 C   0  0  0  0  0  0  0  0  0  0  0  0
   10.4910  -10.2150  -28.7860 C   0  0  0  0  0  0  0  0  0  0  0  0
    9.1260  -10.2980  -29.0170 C   0  0  0  0  0  0  0  0  0  0  0  0
    8.6370  -10.9280  -30.1680 C   0  0  0  0  0  0  0  0  0  0  0  0
    8.2570   -9.7330  -28.0860 C   0  0  0  0  0  0  0  0  0  0  0  0
    6.8880   -9.8050  -28.3060 C   0  0  0  0  0  0  0  0  0  0  0  0
    6.3930  -10.4370  -29.4490 C   0  0  0  0  0  0  0  0  0  0  0  0
    5.0520  -10.5120  -29.6510 O   0  0  0  0  0  0  0  0  0  0  0  0
    4.4160  -11.0040  -28.4530 C   0  0  0  0  0  0  0  0  0  0  0  0
    7.2620  -11.0070  -30.3970 C   0  0  0  0  0  0  0  0  0  0  0  0
    6.7290  -11.6210  -31.5100 O   0  0  0  0  0  0  0  0  0  0  0  0
    7.6300  -11.7370  -32.6480 C   0  0  0  0  0  0  0  0  0  0  0  0
    9.1719  -20.8648  -26.4948 H   0  0  0  0  0  0  0  0  0  0  0  0
   10.6904  -20.1669  -25.8361 H   0  0  0  0  0  0  0  0  0  0  0  0
    9.5908  -19.1501  -26.8280 H   0  0  0  0  0  0  0  0  0  0  0  0
    8.4744  -17.0478  -25.6289 H   0  0  0  0  0  0  0  0  0  0  0  0
    9.7294  -21.6360  -21.7895 H   0  0  0  0  0  0  0  0  0  0  0  0
    8.6248  -20.7938  -22.9284 H   0  0  0  0  0  0  0  0  0  0  0  0
    8.9302  -20.1043  -21.2980 H   0  0  0  0  0  0  0  0  0  0  0  0
   11.5458  -17.5257  -21.7719 H   0  0  0  0  0  0  0  0  0  0  0  0
   10.9910  -15.2911  -22.6517 H   0  0  0  0  0  0  0  0  0  0  0  0
    7.6426  -14.1742  -23.5741 H   0  0  0  0  0  0  0  0  0  0  0  0
    7.9548  -11.7260  -23.3722 H   0  0  0  0  0  0  0  0  0  0  0  0
    7.7991  -12.2895  -25.0707 H   0  0  0  0  0  0  0  0  0  0  0  0
    9.4119  -11.8462  -24.4157 H   0  0  0  0  0  0  0  0  0  0  0  0
    9.4588  -14.8469  -22.0116 H   0  0  0  0  0  0  0  0  0  0  0  0
    8.6770  -13.2860  -21.5885 H   0  0  0  0  0  0  0  0  0  0  0  0
   10.2966  -13.2978  -22.3654 H   0  0  0  0  0  0  0  0  0  0  0  0
   10.0691  -13.8509  -26.6328 H   0  0  0  0  0  0  0  0  0  0  0  0
   11.2413  -14.9187  -25.7886 H   0  0  0  0  0  0  0  0  0  0  0  0
   12.3512  -13.1025  -25.1387 H   0  0  0  0  0  0  0  0  0  0  0  0
   10.9359  -12.6234  -24.1416 H   0  0  0  0  0  0  0  0  0  0  0  0
   11.1752  -10.7491  -25.4652 H   0  0  0  0  0  0  0  0  0  0  0  0
   10.0069  -11.7058  -26.4381 H   0  0  0  0  0  0  0  0  0  0  0  0
   12.3703  -10.6406  -27.2088 H   0  0  0  0  0  0  0  0  0  0  0  0
   13.6265  -12.3725  -28.2111 H   0  0  0  0  0  0  0  0  0  0  0  0
   12.6021  -13.5534  -27.3264 H   0  0  0  0  0  0  0  0  0  0  0  0
   13.6671  -12.4291  -26.4162 H   0  0  0  0  0  0  0  0  0  0  0  0
   10.2742  -12.3113  -28.2932 H   0  0  0  0  0  0  0  0  0  0  0  0
   11.7080  -11.9278  -29.3051 H   0  0  0  0  0  0  0  0  0  0  0  0
   10.9822   -9.8167  -29.6860 H   0  0  0  0  0  0  0  0  0  0  0  0
   10.6696   -9.5355  -27.9396 H   0  0  0  0  0  0  0  0  0  0  0  0
    9.3289  -11.3562  -30.8842 H   0  0  0  0  0  0  0  0  0  0  0  0
    8.6451   -9.2430  -27.2004 H   0  0  0  0  0  0  0  0  0  0  0  0
    6.2016   -9.3696  -27.5888 H   0  0  0  0  0  0  0  0  0  0  0  0
    3.3295  -11.0658  -28.6136 H   0  0  0  0  0  0  0  0  0  0  0  0
    4.6248  -10.3181  -27.6188 H   0  0  0  0  0  0  0  0  0  0  0  0
    4.8086  -12.0032  -28.2133 H   0  0  0  0  0  0  0  0  0  0  0  0
    7.1100  -12.2381  -33.4777 H   0  0  0  0  0  0  0  0  0  0  0  0
    8.5122  -12.3268  -32.3586 H   0  0  0  0  0  0  0  0  0  0  0  0
    7.9483  -10.7337  -32.9674 H   0  0  0  0  0  0  0  0  0  0  0  0
  1  2  1  0  0  0  0
  1 34  1  0  0  0  0
  1 35  1  0  0  0  0
  1 36  1  0  0  0  0
  2  3  1  0  0  0  0
  3  4  2  0  0  0  0
  3  5  1  0  0  0  0
  4 10  1  0  0  0  0
  4 37  1  0  0  0  0
  5  6  1  0  0  0  0
  5  8  2  0  0  0  0
  6  7  1  0  0  0  0
  7 38  1  0  0  0  0
  7 39  1  0  0  0  0
  7 40  1  0  0  0  0
  8  9  1  0  0  0  0
  8 41  1  0  0  0  0
  9 10  2  0  0  0  0
  9 42  1  0  0  0  0
 10 11  1  0  0  0  0
 11 12  1  0  0  0  0
 11 15  1  6  0  0  0
 11 17  1  0  0  0  0
 12 13  1  0  0  0  0
 12 14  1  0  0  0  0
 12 43  1  0  0  0  0
 13 44  1  0  0  0  0
 13 45  1  0  0  0  0
 13 46  1  0  0  0  0
 14 47  1  0  0  0  0
 14 48  1  0  0  0  0
 14 49  1  0  0  0  0
 15 16  3  0  0  0  0
 17 18  1  0  0  0  0
 17 50  1  0  0  0  0
 17 51  1  0  0  0  0
 18 19  1  0  0  0  0
 18 52  1  0  0  0  0
 18 53  1  0  0  0  0
 19 20  1  0  0  0  0
 19 54  1  0  0  0  0
 19 55  1  0  0  0  0
 20 21  1  0  0  0  0
 20 22  1  0  0  0  0
 20 56  1  1  0  0  0
 21 57  1  0  0  0  0
 21 58  1  0  0  0  0
 21 59  1  0  0  0  0
 22 23  1  0  0  0  0
 22 60  1  0  0  0  0
 22 61  1  0  0  0  0
 23 24  1  0  0  0  0
 23 62  1  0  0  0  0
 23 63  1  0  0  0  0
 24 25  2  0  0  0  0
 24 26  1  0  0  0  0
 25 31  1  0  0  0  0
 25 64  1  0  0  0  0
 26 27  2  0  0  0  0
 26 65  1  0  0  0  0
 27 28  1  0  0  0  0
 27 66  1  0  0  0  0
 28 29  1  0  0  0  0
 28 31  2  0  0  0  0
 29 30  1  0  0  0  0
 30 67  1  0  0  0  0
 30 68  1  0  0  0  0
 30 69  1  0  0  0  0
 31 32  1  0  0  0  0
 32 33  1  0  0  0  0
 33 70  1  0  0  0  0
 33 71  1  0  0  0  0
 33 72  1  0  0  0  0
M  CHG  1  20   1
M  END
