5c7a_ligand
 OpenBabel08222323353D

 42 44  0  0  1  0  0  0  0  0999 V2000
  -15.3760  -21.4430   -0.3470 C   0  0  0  0  0  0  0  0  0  0  0  0
  -15.9110  -20.1020   -0.8360 C   0  0  2  0  0  0  0  0  0  0  0  0
  -15.8980  -19.9890   -2.3600 C   0  0  0  0  0  0  0  0  0  0  0  0
  -16.3330  -18.6640   -2.8210 N   0  3  2  0  0  0  0  0  0  0  0  0
  -16.4980  -18.5770   -4.2800 C   0  0  0  0  0  0  0  0  0  0  0  0
  -15.2600  -18.8670   -5.1130 C   0  0  0  0  0  0  0  0  0  0  0  0
  -16.4790  -19.0630   -8.6090 C   0  0  0  0  0  0  0  0  0  0  0  0
  -15.0020  -19.3330   -8.6890 C   0  0  0  0  0  0  0  0  0  0  0  0
  -14.2140  -19.6230   -9.7910 C   0  0  0  0  0  0  0  0  0  0  0  0
  -12.8530  -19.8400   -9.6330 C   0  0  0  0  0  0  0  0  0  0  0  0
  -12.2790  -19.7670   -8.3790 C   0  0  0  0  0  0  0  0  0  0  0  0
  -13.0590  -19.4770   -7.2720 C   0  0  0  0  0  0  0  0  0  0  0  0
  -14.4170  -19.2610   -7.4320 C   0  0  0  0  0  0  0  0  0  0  0  0
  -14.1680  -19.0160   -4.5810 O   0  0  0  0  0  0  0  0  0  0  0  0
  -15.4170  -18.9540   -6.4770 N   0  0  0  0  0  0  0  0  0  0  0  0
  -16.7170  -18.7000   -7.1540 C   0  0  0  0  0  0  0  0  0  0  0  0
  -15.4800  -17.6070   -2.2630 C   0  0  0  0  0  0  0  0  0  0  0  0
  -15.5050  -17.6500   -0.7450 C   0  0  0  0  0  0  0  0  0  0  0  0
  -15.0780  -18.9910   -0.2650 N   0  3  0  0  0  0  0  0  0  0  0  0
  -15.9869  -22.2562   -0.7659 H   0  0  0  0  0  0  0  0  0  0  0  0
  -15.4226  -21.4779    0.7514 H   0  0  0  0  0  0  0  0  0  0  0  0
  -14.3325  -21.5627   -0.6738 H   0  0  0  0  0  0  0  0  0  0  0  0
  -16.9479  -19.9929   -0.4853 H   0  0  0  0  0  0  0  0  0  0  0  0
  -16.5746  -20.7492   -2.7776 H   0  0  0  0  0  0  0  0  0  0  0  0
  -14.8748  -20.1712   -2.7202 H   0  0  0  0  0  0  0  0  0  0  0  0
  -17.2518  -18.5183   -2.4329 H   0  0  0  0  0  0  0  0  0  0  0  0
  -16.8327  -17.5570   -4.5199 H   0  0  0  0  0  0  0  0  0  0  0  0
  -17.2763  -19.2968   -4.5734 H   0  0  0  0  0  0  0  0  0  0  0  0
  -17.0542  -19.9587   -8.8860 H   0  0  0  0  0  0  0  0  0  0  0  0
  -16.7588  -18.2289   -9.2692 H   0  0  0  0  0  0  0  0  0  0  0  0
  -14.6610  -19.6803  -10.7769 H   0  0  0  0  0  0  0  0  0  0  0  0
  -12.2382  -20.0675  -10.4963 H   0  0  0  0  0  0  0  0  0  0  0  0
  -11.2150  -19.9372   -8.2609 H   0  0  0  0  0  0  0  0  0  0  0  0
  -12.6094  -19.4196   -6.2873 H   0  0  0  0  0  0  0  0  0  0  0  0
  -17.5077  -19.3312   -6.7222 H   0  0  0  0  0  0  0  0  0  0  0  0
  -17.0011  -17.6414   -7.0610 H   0  0  0  0  0  0  0  0  0  0  0  0
  -15.8474  -16.6277   -2.6035 H   0  0  0  0  0  0  0  0  0  0  0  0
  -14.4472  -17.7530   -2.6124 H   0  0  0  0  0  0  0  0  0  0  0  0
  -16.5265  -17.4455   -0.3919 H   0  0  0  0  0  0  0  0  0  0  0  0
  -14.8200  -16.8864   -0.3480 H   0  0  0  0  0  0  0  0  0  0  0  0
  -14.1172  -19.1382   -0.5318 H   0  0  0  0  0  0  0  0  0  0  0  0
  -15.1550  -19.0136    0.7398 H   0  0  0  0  0  0  0  0  0  0  0  0
  1 20  1  0  0  0  0
  1 21  1  0  0  0  0
  1 22  1  0  0  0  0
  2  1  1  0  0  0  0
  2 19  1  0  0  0  0
  2 23  1  1  0  0  0
  3  2  1  0  0  0  0
  3 24  1  0  0  0  0
  3 25  1  0  0  0  0
  4  3  1  0  0  0  0
  4 17  1  0  0  0  0
  4 26  1  1  0  0  0
  5  4  1  0  0  0  0
  5 27  1  0  0  0  0
  5 28  1  0  0  0  0
  6  5  1  0  0  0  0
  6 14  2  0  0  0  0
  7 16  1  0  0  0  0
  7 29  1  0  0  0  0
  7 30  1  0  0  0  0
  8  7  1  0  0  0  0
  8  9  2  0  0  0  0
  9 10  1  0  0  0  0
  9 31  1  0  0  0  0
 10 32  1  0  0  0  0
 11 10  2  0  0  0  0
 11 33  1  0  0  0  0
 12 11  1  0  0  0  0
 12 34  1  0  0  0  0
 13  8  1  0  0  0  0
 13 12  2  0  0  0  0
 13 15  1  0  0  0  0
 15  6  1  0  0  0  0
 15 16  1  0  0  0  0
 16 35  1  0  0  0  0
 16 36  1  0  0  0  0
 17 18  1  0  0  0  0
 17 37  1  0  0  0  0
 17 38  1  0  0  0  0
 18 19  1  0  0  0  0
 18 39  1  0  0  0  0
 18 40  1  0  0  0  0
 19 41  1  0  0  0  0
 19 42  1  0  0  0  0
M  CHG  2   4   1  19   1
M  END
