5c7d_ligand
 OpenBabel08222323353D

 41 43  0  0  1  0  0  0  0  0999 V2000
  -15.4820  -21.5650   -0.3400 C   0  0  0  0  0  0  0  0  0  0  0  0
  -15.9400  -20.1800   -0.7710 C   0  0  2  0  0  0  0  0  0  0  0  0
  -15.9310  -20.0100   -2.2880 C   0  0  0  0  0  0  0  0  0  0  0  0
  -16.2950  -18.6450   -2.6870 N   0  3  2  0  0  0  0  0  0  0  0  0
  -16.4840  -18.4850   -4.1340 C   0  0  0  0  0  0  0  0  0  0  0  0
  -15.2970  -18.8430   -5.0100 C   0  0  0  0  0  0  0  0  0  0  0  0
  -16.6400  -18.9460   -8.4410 C   0  0  0  0  0  0  0  0  0  0  0  0
  -15.1740  -19.2430   -8.5910 C   0  0  0  0  0  0  0  0  0  0  0  0
  -14.4120  -19.5530   -9.6980 C   0  0  0  0  0  0  0  0  0  0  0  0
  -12.5370  -19.7120   -8.4210 C   0  0  0  0  0  0  0  0  0  0  0  0
  -13.1920  -19.4140   -7.2590 C   0  0  0  0  0  0  0  0  0  0  0  0
  -15.3910  -17.7610   -0.5850 C   0  0  0  0  0  0  0  0  0  0  0  0
  -14.2060  -19.1140   -4.5200 O   0  0  0  0  0  0  0  0  0  0  0  0
  -15.5010  -18.8470   -6.3700 N   0  0  0  0  0  0  0  0  0  0  0  0
  -16.7530  -18.4000   -7.0340 C   0  0  0  0  0  0  0  0  0  0  0  0
  -13.1010  -19.7860   -9.6150 N   0  0  0  0  0  0  0  0  0  0  0  0
  -10.8280  -20.0240   -8.3680 Cl  0  0  0  0  0  0  0  0  0  0  0  0
  -14.5440  -19.1750   -7.3570 C   0  0  0  0  0  0  0  0  0  0  0  0
  -15.3800  -17.6570   -2.1000 C   0  0  0  0  0  0  0  0  0  0  0  0
  -15.0380  -19.1430   -0.1660 N   0  3  0  0  0  0  0  0  0  0  0  0
  -16.1430  -22.3242   -0.7834 H   0  0  0  0  0  0  0  0  0  0  0  0
  -15.5219  -21.6396    0.7567 H   0  0  0  0  0  0  0  0  0  0  0  0
  -14.4500  -21.7328   -0.6817 H   0  0  0  0  0  0  0  0  0  0  0  0
  -16.9660  -20.0237   -0.4065 H   0  0  0  0  0  0  0  0  0  0  0  0
  -16.6520  -20.7139   -2.7292 H   0  0  0  0  0  0  0  0  0  0  0  0
  -14.9222  -20.2339   -2.6652 H   0  0  0  0  0  0  0  0  0  0  0  0
  -17.1977  -18.4666   -2.2755 H   0  0  0  0  0  0  0  0  0  0  0  0
  -16.7358  -17.4314   -4.3248 H   0  0  0  0  0  0  0  0  0  0  0  0
  -17.3274  -19.1239   -4.4347 H   0  0  0  0  0  0  0  0  0  0  0  0
  -17.2395  -19.8611   -8.5560 H   0  0  0  0  0  0  0  0  0  0  0  0
  -16.9664  -18.1986   -9.1792 H   0  0  0  0  0  0  0  0  0  0  0  0
  -14.8941  -19.6092  -10.6673 H   0  0  0  0  0  0  0  0  0  0  0  0
  -12.6730  -19.3682   -6.3084 H   0  0  0  0  0  0  0  0  0  0  0  0
  -16.3949  -17.5124   -0.2104 H   0  0  0  0  0  0  0  0  0  0  0  0
  -14.6582  -17.0554   -0.1664 H   0  0  0  0  0  0  0  0  0  0  0  0
  -17.6350  -18.8146   -6.5239 H   0  0  0  0  0  0  0  0  0  0  0  0
  -16.8184  -17.3020   -7.0453 H   0  0  0  0  0  0  0  0  0  0  0  0
  -15.6986  -16.6467   -2.3964 H   0  0  0  0  0  0  0  0  0  0  0  0
  -14.3605  -17.8429   -2.4688 H   0  0  0  0  0  0  0  0  0  0  0  0
  -14.0902  -19.3342   -0.4509 H   0  0  0  0  0  0  0  0  0  0  0  0
  -15.1057  -19.2028    0.8379 H   0  0  0  0  0  0  0  0  0  0  0  0
  1 21  1  0  0  0  0
  1 22  1  0  0  0  0
  1 23  1  0  0  0  0
  2  1  1  0  0  0  0
  2 20  1  0  0  0  0
  2 24  1  1  0  0  0
  3  2  1  0  0  0  0
  3 25  1  0  0  0  0
  3 26  1  0  0  0  0
  4  3  1  0  0  0  0
  4 19  1  0  0  0  0
  4 27  1  1  0  0  0
  5  4  1  0  0  0  0
  5 28  1  0  0  0  0
  5 29  1  0  0  0  0
  6  5  1  0  0  0  0
  6 13  2  0  0  0  0
  7  8  1  0  0  0  0
  7 30  1  0  0  0  0
  7 31  1  0  0  0  0
  8  9  2  0  0  0  0
  8 18  1  0  0  0  0
  9 16  1  0  0  0  0
  9 32  1  0  0  0  0
 10 17  1  0  0  0  0
 11 10  1  0  0  0  0
 11 33  1  0  0  0  0
 12 20  1  0  0  0  0
 12 34  1  0  0  0  0
 12 35  1  0  0  0  0
 14  6  1  0  0  0  0
 14 15  1  0  0  0  0
 14 18  1  0  0  0  0
 15  7  1  0  0  0  0
 15 36  1  0  0  0  0
 15 37  1  0  0  0  0
 16 10  2  0  0  0  0
 18 11  2  0  0  0  0
 19 12  1  0  0  0  0
 19 38  1  0  0  0  0
 19 39  1  0  0  0  0
 20 40  1  0  0  0  0
 20 41  1  0  0  0  0
M  CHG  2   4   1  20   1
M  END
