5c8k_ligand
 OpenBabel08222323353D

 56 60  0  0  0  0  0  0  0  0999 V2000
  -51.5420   -2.3570  -28.0720 C   0  0  0  0  0  0  0  0  0  0  0  0
  -52.8370   -1.6180  -27.7150 C   0  0  0  0  0  0  0  0  0  0  0  0
  -56.1550    0.4280  -26.5290 C   0  0  0  0  0  0  0  0  0  0  0  0
  -52.0000   -1.3110  -25.3070 C   0  0  0  0  0  0  0  0  0  0  0  0
  -50.6720   -1.9570  -25.7080 C   0  0  0  0  0  0  0  0  0  0  0  0
  -54.1300   -0.5800  -25.9650 C   0  0  0  0  0  0  0  0  0  0  0  0
  -56.0640    1.2490  -25.4210 C   0  0  0  0  0  0  0  0  0  0  0  0
  -54.9450    1.1220  -24.5880 C   0  0  0  0  0  0  0  0  0  0  0  0
  -50.3980   -1.7740  -27.2150 C   0  0  0  0  0  0  0  0  0  0  0  0
  -48.6660   -3.5600  -27.3500 C   0  0  0  0  0  0  0  0  0  0  0  0
  -49.0710   -2.1980  -27.5940 O   0  0  0  0  0  0  0  0  0  0  0  0
  -53.1330   -1.5190  -26.2510 N   0  0  0  0  0  0  0  0  0  0  0  0
  -55.1980   -0.4590  -26.7630 N   0  0  0  0  0  0  0  0  0  0  0  0
  -54.0110    0.2140  -24.8930 N   0  0  0  0  0  0  0  0  0  0  0  0
  -54.8680    1.9500  -23.4710 N   0  0  0  0  0  0  0  0  0  0  0  0
  -54.2050    1.6880  -22.2690 C   0  0  0  0  0  0  0  0  0  0  0  0
  -53.2060    0.7130  -22.1660 C   0  0  0  0  0  0  0  0  0  0  0  0
  -52.5730    0.5140  -20.9410 C   0  0  0  0  0  0  0  0  0  0  0  0
  -52.9440    1.3460  -19.8530 C   0  0  0  0  0  0  0  0  0  0  0  0
  -53.9410    2.3180  -20.0450 C   0  0  0  0  0  0  0  0  0  0  0  0
  -54.5330    2.4510  -21.2220 N   0  0  0  0  0  0  0  0  0  0  0  0
  -52.1790    0.9680  -18.7940 N   0  0  0  0  0  0  0  0  0  0  0  0
  -51.3900   -0.0030  -19.1520 C   0  0  0  0  0  0  0  0  0  0  0  0
  -51.5880   -0.3310  -20.4670 N   0  0  0  0  0  0  0  0  0  0  0  0
  -50.8640   -1.3500  -21.2530 C   0  0  0  0  0  0  0  0  0  0  0  0
  -49.8550   -0.6720  -22.2060 C   0  0  0  0  0  0  0  0  0  0  0  0
  -48.6170   -0.4410  -21.3110 C   0  0  0  0  0  0  0  0  0  0  0  0
  -48.5420   -1.7710  -20.5150 C   0  0  0  0  0  0  0  0  0  0  0  0
  -49.9980   -2.2850  -20.3890 C   0  0  0  0  0  0  0  0  0  0  0  0
  -51.3158   -2.2163  -29.1392 H   0  0  0  0  0  0  0  0  0  0  0  0
  -51.6558   -3.4303  -27.8596 H   0  0  0  0  0  0  0  0  0  0  0  0
  -53.6735   -2.1460  -28.1961 H   0  0  0  0  0  0  0  0  0  0  0  0
  -52.7678   -0.5967  -28.1177 H   0  0  0  0  0  0  0  0  0  0  0  0
  -57.0017    0.5087  -27.2010 H   0  0  0  0  0  0  0  0  0  0  0  0
  -51.8336   -0.2277  -25.2130 H   0  0  0  0  0  0  0  0  0  0  0  0
  -52.2944   -1.7229  -24.3305 H   0  0  0  0  0  0  0  0  0  0  0  0
  -50.7115   -3.0320  -25.4780 H   0  0  0  0  0  0  0  0  0  0  0  0
  -49.8576   -1.4892  -25.1354 H   0  0  0  0  0  0  0  0  0  0  0  0
  -56.8398    1.9737  -25.2019 H   0  0  0  0  0  0  0  0  0  0  0  0
  -50.4182   -0.6893  -27.3968 H   0  0  0  0  0  0  0  0  0  0  0  0
  -47.6329   -3.7035  -27.6995 H   0  0  0  0  0  0  0  0  0  0  0  0
  -49.3349   -4.2443  -27.8925 H   0  0  0  0  0  0  0  0  0  0  0  0
  -48.7210   -3.7714  -26.2719 H   0  0  0  0  0  0  0  0  0  0  0  0
  -55.3535    2.8559  -23.5382 H   0  0  0  0  0  0  0  0  0  0  0  0
  -52.9280    0.1196  -23.0295 H   0  0  0  0  0  0  0  0  0  0  0  0
  -54.2276    2.9639  -19.2230 H   0  0  0  0  0  0  0  0  0  0  0  0
  -50.6700   -0.4889  -18.4952 H   0  0  0  0  0  0  0  0  0  0  0  0
  -51.5960   -1.9404  -21.8237 H   0  0  0  0  0  0  0  0  0  0  0  0
  -50.2507    0.2821  -22.5843 H   0  0  0  0  0  0  0  0  0  0  0  0
  -49.6109   -1.3295  -23.0534 H   0  0  0  0  0  0  0  0  0  0  0  0
  -48.7634    0.4185  -20.6403 H   0  0  0  0  0  0  0  0  0  0  0  0
  -47.7108   -0.2849  -21.9147 H   0  0  0  0  0  0  0  0  0  0  0  0
  -48.1129   -1.5943  -19.5177 H   0  0  0  0  0  0  0  0  0  0  0  0
  -47.9248   -2.5039  -21.0552 H   0  0  0  0  0  0  0  0  0  0  0  0
  -50.0699   -3.3189  -20.7575 H   0  0  0  0  0  0  0  0  0  0  0  0
  -50.3259   -2.2460  -19.3398 H   0  0  0  0  0  0  0  0  0  0  0  0
  1  9  1  0  0  0  0
  1 30  1  0  0  0  0
  1 31  1  0  0  0  0
  2  1  1  0  0  0  0
  2 32  1  0  0  0  0
  2 33  1  0  0  0  0
  3  7  2  0  0  0  0
  3 34  1  0  0  0  0
  4  5  1  0  0  0  0
  4 35  1  0  0  0  0
  4 36  1  0  0  0  0
  5  9  1  0  0  0  0
  5 37  1  0  0  0  0
  5 38  1  0  0  0  0
  6 12  1  0  0  0  0
  6 13  2  0  0  0  0
  6 14  1  0  0  0  0
  7  8  1  0  0  0  0
  7 39  1  0  0  0  0
  8 14  2  0  0  0  0
  8 15  1  0  0  0  0
  9 11  1  0  0  0  0
  9 40  1  0  0  0  0
 10 41  1  0  0  0  0
 10 42  1  0  0  0  0
 10 43  1  0  0  0  0
 11 10  1  0  0  0  0
 12  2  1  0  0  0  0
 12  4  1  0  0  0  0
 13  3  1  0  0  0  0
 15 16  1  0  0  0  0
 15 44  1  0  0  0  0
 16 17  2  0  0  0  0
 16 21  1  0  0  0  0
 17 18  1  0  0  0  0
 17 45  1  0  0  0  0
 18 19  2  0  0  0  0
 18 24  1  0  0  0  0
 19 20  1  0  0  0  0
 19 22  1  0  0  0  0
 20 21  2  0  0  0  0
 20 46  1  0  0  0  0
 22 23  2  0  0  0  0
 23 24  1  0  0  0  0
 23 47  1  0  0  0  0
 24 25  1  0  0  0  0
 25 26  1  0  0  0  0
 25 29  1  0  0  0  0
 25 48  1  0  0  0  0
 26 27  1  0  0  0  0
 26 49  1  0  0  0  0
 26 50  1  0  0  0  0
 27 28  1  0  0  0  0
 27 51  1  0  0  0  0
 27 52  1  0  0  0  0
 28 29  1  0  0  0  0
 28 53  1  0  0  0  0
 28 54  1  0  0  0  0
 29 55  1  0  0  0  0
 29 56  1  0  0  0  0
M  END
