5c8m_ligand
 OpenBabel08222323353D

 57 60  0  0  0  0  0  0  0  0999 V2000
  -54.7130    1.5010  -21.2730 C   0  0  0  0  0  0  0  0  0  0  0  0
  -55.7040    2.4670  -21.4950 C   0  0  0  0  0  0  0  0  0  0  0  0
  -52.6590   -1.1820  -22.6950 C   0  0  0  0  0  0  0  0  0  0  0  0
  -55.9480    1.8120  -23.7270 C   0  0  0  0  0  0  0  0  0  0  0  0
  -54.9470    0.8420  -23.5880 C   0  0  0  0  0  0  0  0  0  0  0  0
  -54.3180    0.6690  -22.3480 C   0  0  0  0  0  0  0  0  0  0  0  0
  -51.1620   -0.9400  -22.9180 C   0  0  0  0  0  0  0  0  0  0  0  0
  -53.0010   -2.6250  -22.3120 C   0  0  0  0  0  0  0  0  0  0  0  0
  -53.9640    1.1390  -20.2020 N   0  0  0  0  0  0  0  0  0  0  0  0
  -52.1870   -0.4060  -19.5120 C   0  0  0  0  0  0  0  0  0  0  0  0
  -53.1510    0.1760  -20.5240 C   0  0  0  0  0  0  0  0  0  0  0  0
  -56.2710    2.5860  -22.6870 N   0  0  0  0  0  0  0  0  0  0  0  0
  -53.3300   -0.1650  -21.8550 N   0  0  0  0  0  0  0  0  0  0  0  0
  -56.6090    2.0600  -24.9420 N   0  0  0  0  0  0  0  0  0  0  0  0
  -56.6920    1.2170  -26.0480 C   0  0  0  0  0  0  0  0  0  0  0  0
  -57.7530    1.3750  -26.9540 C   0  0  0  0  0  0  0  0  0  0  0  0
  -57.8170    0.5370  -28.0540 C   0  0  0  0  0  0  0  0  0  0  0  0
  -56.8870   -0.4030  -28.2100 N   0  0  0  0  0  0  0  0  0  0  0  0
  -55.8740   -0.5470  -27.3480 C   0  0  0  0  0  0  0  0  0  0  0  0
  -55.7840    0.2660  -26.2910 N   0  0  0  0  0  0  0  0  0  0  0  0
  -54.9390   -1.5700  -27.5340 N   0  0  0  0  0  0  0  0  0  0  0  0
  -54.5250   -1.6730  -28.9600 C   0  0  0  0  0  0  0  0  0  0  0  0
  -53.3440   -2.6210  -29.2000 C   0  0  0  0  0  0  0  0  0  0  0  0
  -52.2430   -2.1580  -28.2430 C   0  0  0  0  0  0  0  0  0  0  0  0
  -52.6570   -2.4560  -26.7950 C   0  0  0  0  0  0  0  0  0  0  0  0
  -53.8860   -1.5920  -26.4770 C   0  0  0  0  0  0  0  0  0  0  0  0
  -50.5560   -2.6080  -28.7530 S   0  0  0  0  0  0  0  0  0  0  0  0
  -50.1000   -3.6880  -27.9470 O   0  0  0  0  0  0  0  0  0  0  0  0
  -50.6000   -2.7890  -30.1620 O   0  0  0  0  0  0  0  0  0  0  0  0
  -49.4980   -1.1770  -28.3760 C   0  0  0  0  0  0  0  0  0  0  0  0
  -56.0088    3.1212  -20.6862 H   0  0  0  0  0  0  0  0  0  0  0  0
  -53.1067   -1.0492  -23.6909 H   0  0  0  0  0  0  0  0  0  0  0  0
  -54.6607    0.2288  -24.4348 H   0  0  0  0  0  0  0  0  0  0  0  0
  -50.7512   -1.7413  -23.5498 H   0  0  0  0  0  0  0  0  0  0  0  0
  -50.6429   -0.9351  -21.9482 H   0  0  0  0  0  0  0  0  0  0  0  0
  -51.0176    0.0300  -23.4161 H   0  0  0  0  0  0  0  0  0  0  0  0
  -54.0877   -2.7188  -22.1697 H   0  0  0  0  0  0  0  0  0  0  0  0
  -52.4847   -2.8884  -21.3771 H   0  0  0  0  0  0  0  0  0  0  0  0
  -52.6763   -3.3041  -23.1141 H   0  0  0  0  0  0  0  0  0  0  0  0
  -52.3164    0.1048  -18.5464 H   0  0  0  0  0  0  0  0  0  0  0  0
  -51.1549   -0.2655  -19.8657 H   0  0  0  0  0  0  0  0  0  0  0  0
  -52.3893   -1.4802  -19.3885 H   0  0  0  0  0  0  0  0  0  0  0  0
  -57.0867    2.9688  -25.0242 H   0  0  0  0  0  0  0  0  0  0  0  0
  -58.5067    2.1377  -26.7953 H   0  0  0  0  0  0  0  0  0  0  0  0
  -58.6149    0.6448  -28.7798 H   0  0  0  0  0  0  0  0  0  0  0  0
  -54.2402   -0.6701  -29.3107 H   0  0  0  0  0  0  0  0  0  0  0  0
  -55.3837   -2.0356  -29.5441 H   0  0  0  0  0  0  0  0  0  0  0  0
  -53.0009   -2.5505  -30.2427 H   0  0  0  0  0  0  0  0  0  0  0  0
  -53.6336   -3.6588  -28.9786 H   0  0  0  0  0  0  0  0  0  0  0  0
  -52.2479   -1.0601  -28.3100 H   0  0  0  0  0  0  0  0  0  0  0  0
  -51.8340   -2.2042  -26.1100 H   0  0  0  0  0  0  0  0  0  0  0  0
  -52.9096   -3.5213  -26.6886 H   0  0  0  0  0  0  0  0  0  0  0  0
  -54.3409   -1.9752  -25.5517 H   0  0  0  0  0  0  0  0  0  0  0  0
  -53.5433   -0.5591  -26.3167 H   0  0  0  0  0  0  0  0  0  0  0  0
  -48.4613   -1.4005  -28.6679 H   0  0  0  0  0  0  0  0  0  0  0  0
  -49.5377   -0.9657  -27.2972 H   0  0  0  0  0  0  0  0  0  0  0  0
  -49.8552   -0.2995  -28.9350 H   0  0  0  0  0  0  0  0  0  0  0  0
  1  2  2  0  0  0  0
  1  9  1  0  0  0  0
  2 12  1  0  0  0  0
  2 31  1  0  0  0  0
  3  7  1  0  0  0  0
  3  8  1  0  0  0  0
  3 32  1  0  0  0  0
  4 12  2  0  0  0  0
  4 14  1  0  0  0  0
  5  4  1  0  0  0  0
  5 33  1  0  0  0  0
  6  1  1  0  0  0  0
  6  5  2  0  0  0  0
  6 13  1  0  0  0  0
  7 34  1  0  0  0  0
  7 35  1  0  0  0  0
  7 36  1  0  0  0  0
  8 37  1  0  0  0  0
  8 38  1  0  0  0  0
  8 39  1  0  0  0  0
  9 11  2  0  0  0  0
 10 40  1  0  0  0  0
 10 41  1  0  0  0  0
 10 42  1  0  0  0  0
 11 10  1  0  0  0  0
 11 13  1  0  0  0  0
 13  3  1  0  0  0  0
 14 15  1  0  0  0  0
 14 43  1  0  0  0  0
 15 16  2  0  0  0  0
 15 20  1  0  0  0  0
 16 17  1  0  0  0  0
 16 44  1  0  0  0  0
 17 18  2  0  0  0  0
 17 45  1  0  0  0  0
 18 19  1  0  0  0  0
 19 20  2  0  0  0  0
 19 21  1  0  0  0  0
 21 22  1  0  0  0  0
 21 26  1  0  0  0  0
 22 23  1  0  0  0  0
 22 46  1  0  0  0  0
 22 47  1  0  0  0  0
 23 24  1  0  0  0  0
 23 48  1  0  0  0  0
 23 49  1  0  0  0  0
 24 25  1  0  0  0  0
 24 27  1  0  0  0  0
 24 50  1  0  0  0  0
 25 26  1  0  0  0  0
 25 51  1  0  0  0  0
 25 52  1  0  0  0  0
 26 53  1  0  0  0  0
 26 54  1  0  0  0  0
 27 28  2  0  0  0  0
 27 29  2  0  0  0  0
 27 30  1  0  0  0  0
 30 55  1  0  0  0  0
 30 56  1  0  0  0  0
 30 57  1  0  0  0  0
M  END
