5c91_ligand
 OpenBabel08222323353D

 45 46  0  0  0  0  0  0  0  0999 V2000
  -36.9880    3.4340   -4.4930 O   0  0  0  0  0  0  0  0  0  0  0  0
  -36.1060    9.8520   -4.2280 C   0  0  0  0  0  0  0  0  0  0  0  0
  -35.5210    8.5530   -6.2430 C   0  0  0  0  0  0  0  0  0  0  0  0
  -35.0460    7.3050   -6.9370 C   0  0  0  0  0  0  0  0  0  0  0  0
  -33.9830    5.9530   -8.3930 N   0  0  0  0  0  0  0  0  0  0  0  0
  -34.1540    7.2570   -8.1170 C   0  0  0  0  0  0  0  0  0  0  0  0
  -33.5660    8.4340   -8.8510 C   0  0  0  0  0  0  0  0  0  0  0  0
  -33.1560    5.4310   -9.5180 C   0  0  0  0  0  0  0  0  0  0  0  0
  -34.6710    5.1920   -7.5090 C   0  0  0  0  0  0  0  0  0  0  0  0
  -34.7970    3.8080   -7.3950 C   0  0  0  0  0  0  0  0  0  0  0  0
  -35.5700    3.2490   -6.3800 C   0  0  0  0  0  0  0  0  0  0  0  0
  -36.2340    4.0570   -5.4600 C   0  0  0  0  0  0  0  0  0  0  0  0
  -37.4800    4.0670   -3.3090 C   0  0  0  0  0  0  0  0  0  0  0  0
  -36.1200    5.4490   -5.5680 C   0  0  0  0  0  0  0  0  0  0  0  0
  -36.1110   10.4690   -0.5500 O   0  0  0  0  0  0  0  0  0  0  0  0
  -37.2340   10.5140   -1.0360 C   0  0  0  0  0  0  0  0  0  0  0  0
  -38.3870   10.1030   -0.2360 O   0  0  0  0  0  0  0  0  0  0  0  0
  -38.3640    8.9420    0.5930 C   0  0  0  0  0  0  0  0  0  0  0  0
  -37.4480   11.0200   -2.4520 C   0  0  0  0  0  0  0  0  0  0  0  0
  -37.4600    9.9120   -3.5180 C   0  0  0  0  0  0  0  0  0  0  0  0
  -35.6990    8.6260   -4.9130 N   0  0  0  0  0  0  0  0  0  0  0  0
  -35.7220    9.5190   -6.9640 O   0  0  0  0  0  0  0  0  0  0  0  0
  -35.3420    6.0000   -6.5830 C   0  0  0  0  0  0  0  0  0  0  0  0
  -35.3384   10.0625   -3.4687 H   0  0  0  0  0  0  0  0  0  0  0  0
  -36.1057   10.6532   -4.9817 H   0  0  0  0  0  0  0  0  0  0  0  0
  -33.8995    9.3674   -8.3739 H   0  0  0  0  0  0  0  0  0  0  0  0
  -33.9012    8.4176   -9.8985 H   0  0  0  0  0  0  0  0  0  0  0  0
  -32.4681    8.3765   -8.8164 H   0  0  0  0  0  0  0  0  0  0  0  0
  -32.7143    6.2737  -10.0701 H   0  0  0  0  0  0  0  0  0  0  0  0
  -33.7899    4.8405  -10.1959 H   0  0  0  0  0  0  0  0  0  0  0  0
  -32.3535    4.7937   -9.1182 H   0  0  0  0  0  0  0  0  0  0  0  0
  -34.2893    3.1619   -8.1020 H   0  0  0  0  0  0  0  0  0  0  0  0
  -35.6559    2.1710   -6.3051 H   0  0  0  0  0  0  0  0  0  0  0  0
  -38.0505    3.3387   -2.7139 H   0  0  0  0  0  0  0  0  0  0  0  0
  -38.1344    4.9064   -3.5868 H   0  0  0  0  0  0  0  0  0  0  0  0
  -36.6336    4.4428   -2.7153 H   0  0  0  0  0  0  0  0  0  0  0  0
  -36.6348    6.0939   -4.8651 H   0  0  0  0  0  0  0  0  0  0  0  0
  -39.3357    8.8318    1.0966 H   0  0  0  0  0  0  0  0  0  0  0  0
  -37.5699    9.0456    1.3471 H   0  0  0  0  0  0  0  0  0  0  0  0
  -38.1687    8.0536   -0.0255 H   0  0  0  0  0  0  0  0  0  0  0  0
  -36.6378   11.7236   -2.6939 H   0  0  0  0  0  0  0  0  0  0  0  0
  -38.4135   11.5458   -2.4890 H   0  0  0  0  0  0  0  0  0  0  0  0
  -37.6609    8.9444   -3.0349 H   0  0  0  0  0  0  0  0  0  0  0  0
  -38.2484   10.1246   -4.2550 H   0  0  0  0  0  0  0  0  0  0  0  0
  -35.5459    7.8030   -4.3660 H   0  0  0  0  0  0  0  0  0  0  0  0
  1 13  1  0  0  0  0
  2 21  1  0  0  0  0
  2 24  1  0  0  0  0
  2 25  1  0  0  0  0
  3  4  1  0  0  0  0
  3 22  2  0  0  0  0
  4  6  2  0  0  0  0
  4 23  1  0  0  0  0
  5  8  1  0  0  0  0
  6  5  1  0  0  0  0
  6  7  1  0  0  0  0
  7 26  1  0  0  0  0
  7 27  1  0  0  0  0
  7 28  1  0  0  0  0
  8 29  1  0  0  0  0
  8 30  1  0  0  0  0
  8 31  1  0  0  0  0
  9  5  1  0  0  0  0
  9 10  2  0  0  0  0
 10 11  1  0  0  0  0
 10 32  1  0  0  0  0
 11 33  1  0  0  0  0
 12  1  1  0  0  0  0
 12 11  2  0  0  0  0
 13 34  1  0  0  0  0
 13 35  1  0  0  0  0
 13 36  1  0  0  0  0
 14 12  1  0  0  0  0
 14 37  1  0  0  0  0
 16 15  2  0  0  0  0
 16 17  1  0  0  0  0
 17 18  1  0  0  0  0
 18 38  1  0  0  0  0
 18 39  1  0  0  0  0
 18 40  1  0  0  0  0
 19 16  1  0  0  0  0
 19 20  1  0  0  0  0
 19 41  1  0  0  0  0
 19 42  1  0  0  0  0
 20  2  1  0  0  0  0
 20 43  1  0  0  0  0
 20 44  1  0  0  0  0
 21  3  1  0  0  0  0
 21 45  1  0  0  0  0
 23  9  1  0  0  0  0
 23 14  2  0  0  0  0
M  END
