5cal_ligand
 OpenBabel08222323353D

 54 56  0  0  0  0  0  0  0  0999 V2000
  -52.7840    1.5370  -19.3620 C   0  0  0  0  0  0  0  0  0  0  0  0
  -53.7480    2.4970  -19.6950 C   0  0  0  0  0  0  0  0  0  0  0  0
  -50.5890   -1.2760  -20.3250 C   0  0  0  0  0  0  0  0  0  0  0  0
  -53.8730    1.7240  -21.8930 C   0  0  0  0  0  0  0  0  0  0  0  0
  -52.8930    0.7500  -21.6510 C   0  0  0  0  0  0  0  0  0  0  0  0
  -52.3360    0.6320  -20.3640 C   0  0  0  0  0  0  0  0  0  0  0  0
  -51.4300   -2.3860  -20.9680 C   0  0  0  0  0  0  0  0  0  0  0  0
  -49.5080   -0.7450  -21.2710 C   0  0  0  0  0  0  0  0  0  0  0  0
  -52.1060    1.2470  -18.2230 N   0  0  0  0  0  0  0  0  0  0  0  0
  -50.3980   -0.3090  -17.3570 C   0  0  0  0  0  0  0  0  0  0  0  0
  -51.2960    0.2520  -18.4330 C   0  0  0  0  0  0  0  0  0  0  0  0
  -54.2560    2.5440  -20.9140 N   0  0  0  0  0  0  0  0  0  0  0  0
  -51.3910   -0.1800  -19.7360 N   0  0  0  0  0  0  0  0  0  0  0  0
  -54.5000    1.9380  -23.1310 N   0  0  0  0  0  0  0  0  0  0  0  0
  -54.5270    1.1190  -24.2560 C   0  0  0  0  0  0  0  0  0  0  0  0
  -55.6330    1.1620  -25.1240 C   0  0  0  0  0  0  0  0  0  0  0  0
  -55.6200    0.3330  -26.2400 C   0  0  0  0  0  0  0  0  0  0  0  0
  -54.5700   -0.4650  -26.4540 N   0  0  0  0  0  0  0  0  0  0  0  0
  -53.5430   -0.4940  -25.6070 C   0  0  0  0  0  0  0  0  0  0  0  0
  -53.5100    0.3020  -24.5500 N   0  0  0  0  0  0  0  0  0  0  0  0
  -52.4410   -1.2840  -25.8610 N   0  0  0  0  0  0  0  0  0  0  0  0
  -52.2180   -2.5520  -25.1530 C   0  0  0  0  0  0  0  0  0  0  0  0
  -50.9280   -3.2700  -25.6050 C   0  0  0  0  0  0  0  0  0  0  0  0
  -50.7370   -3.1550  -27.1290 C   0  0  0  0  0  0  0  0  0  0  0  0
  -49.7450   -2.6010  -24.9020 C   0  0  0  0  0  0  0  0  0  0  0  0
  -50.9650   -4.7320  -25.1810 C   0  0  0  0  0  0  0  0  0  0  0  0
  -51.4460   -5.0580  -24.1060 O   0  0  0  0  0  0  0  0  0  0  0  0
  -50.4470   -5.7080  -25.9660 N   0  0  0  0  0  0  0  0  0  0  0  0
  -54.0801    3.2073  -18.9465 H   0  0  0  0  0  0  0  0  0  0  0  0
  -50.0590   -1.7483  -19.4848 H   0  0  0  0  0  0  0  0  0  0  0  0
  -52.5671    0.0931  -22.4494 H   0  0  0  0  0  0  0  0  0  0  0  0
  -50.7641   -3.1584  -21.3803 H   0  0  0  0  0  0  0  0  0  0  0  0
  -52.0424   -1.9604  -21.7765 H   0  0  0  0  0  0  0  0  0  0  0  0
  -52.0865   -2.8354  -20.2084 H   0  0  0  0  0  0  0  0  0  0  0  0
  -48.9345    0.0459  -20.7653 H   0  0  0  0  0  0  0  0  0  0  0  0
  -49.9814   -0.3338  -22.1748 H   0  0  0  0  0  0  0  0  0  0  0  0
  -48.8316   -1.5656  -21.5523 H   0  0  0  0  0  0  0  0  0  0  0  0
  -50.5524    0.2501  -16.4223 H   0  0  0  0  0  0  0  0  0  0  0  0
  -49.3478   -0.2161  -17.6706 H   0  0  0  0  0  0  0  0  0  0  0  0
  -50.6396   -1.3697  -17.1939 H   0  0  0  0  0  0  0  0  0  0  0  0
  -55.0126    2.8270  -23.2191 H   0  0  0  0  0  0  0  0  0  0  0  0
  -56.4705    1.8219  -24.9286 H   0  0  0  0  0  0  0  0  0  0  0  0
  -56.4552    0.3341  -26.9311 H   0  0  0  0  0  0  0  0  0  0  0  0
  -51.7560   -0.9766  -26.5661 H   0  0  0  0  0  0  0  0  0  0  0  0
  -53.0745   -3.2157  -25.3423 H   0  0  0  0  0  0  0  0  0  0  0  0
  -52.1458   -2.3449  -24.0751 H   0  0  0  0  0  0  0  0  0  0  0  0
  -49.8127   -3.6740  -27.4229 H   0  0  0  0  0  0  0  0  0  0  0  0
  -50.6672   -2.0940  -27.4108 H   0  0  0  0  0  0  0  0  0  0  0  0
  -51.5946   -3.6149  -27.6418 H   0  0  0  0  0  0  0  0  0  0  0  0
  -49.8742   -2.6790  -23.8124 H   0  0  0  0  0  0  0  0  0  0  0  0
  -49.6988   -1.5406  -25.1907 H   0  0  0  0  0  0  0  0  0  0  0  0
  -48.8116   -3.1025  -25.1974 H   0  0  0  0  0  0  0  0  0  0  0  0
  -50.4825   -6.6616  -25.6671 H   0  0  0  0  0  0  0  0  0  0  0  0
  -50.0293   -5.4745  -26.8441 H   0  0  0  0  0  0  0  0  0  0  0  0
  1  2  2  0  0  0  0
  1  9  1  0  0  0  0
  2 12  1  0  0  0  0
  2 29  1  0  0  0  0
  3  7  1  0  0  0  0
  3  8  1  0  0  0  0
  3 30  1  0  0  0  0
  4 12  2  0  0  0  0
  4 14  1  0  0  0  0
  5  4  1  0  0  0  0
  5 31  1  0  0  0  0
  6  1  1  0  0  0  0
  6  5  2  0  0  0  0
  6 13  1  0  0  0  0
  7 32  1  0  0  0  0
  7 33  1  0  0  0  0
  7 34  1  0  0  0  0
  8 35  1  0  0  0  0
  8 36  1  0  0  0  0
  8 37  1  0  0  0  0
  9 11  2  0  0  0  0
 10 38  1  0  0  0  0
 10 39  1  0  0  0  0
 10 40  1  0  0  0  0
 11 10  1  0  0  0  0
 11 13  1  0  0  0  0
 13  3  1  0  0  0  0
 14 15  1  0  0  0  0
 14 41  1  0  0  0  0
 15 16  2  0  0  0  0
 15 20  1  0  0  0  0
 16 17  1  0  0  0  0
 16 42  1  0  0  0  0
 17 18  2  0  0  0  0
 17 43  1  0  0  0  0
 18 19  1  0  0  0  0
 19 20  2  0  0  0  0
 19 21  1  0  0  0  0
 21 22  1  0  0  0  0
 21 44  1  0  0  0  0
 22 23  1  0  0  0  0
 22 45  1  0  0  0  0
 22 46  1  0  0  0  0
 23 24  1  0  0  0  0
 23 25  1  0  0  0  0
 23 26  1  0  0  0  0
 24 47  1  0  0  0  0
 24 48  1  0  0  0  0
 24 49  1  0  0  0  0
 25 50  1  0  0  0  0
 25 51  1  0  0  0  0
 25 52  1  0  0  0  0
 26 27  2  0  0  0  0
 26 28  1  0  0  0  0
 28 53  1  0  0  0  0
 28 54  1  0  0  0  0
M  END
