5can_ligand
 OpenBabel08222323353D

 55 58  0  0  1  0  0  0  0  0999 V2000
  -53.0750    1.5580  -19.6130 C   0  0  0  0  0  0  0  0  0  0  0  0
  -54.0750    2.5200  -19.8400 C   0  0  0  0  0  0  0  0  0  0  0  0
  -51.0540   -1.0920  -21.1080 C   0  0  0  0  0  0  0  0  0  0  0  0
  -54.3070    1.8440  -22.0850 C   0  0  0  0  0  0  0  0  0  0  0  0
  -53.2790    0.9140  -21.9500 C   0  0  0  0  0  0  0  0  0  0  0  0
  -52.6700    0.7400  -20.7020 C   0  0  0  0  0  0  0  0  0  0  0  0
  -49.5520   -0.8910  -21.3220 C   0  0  0  0  0  0  0  0  0  0  0  0
  -51.4850   -2.5300  -20.8210 C   0  0  0  0  0  0  0  0  0  0  0  0
  -52.3240    1.1770  -18.5410 N   0  0  0  0  0  0  0  0  0  0  0  0
  -50.5770   -0.4100  -17.8750 C   0  0  0  0  0  0  0  0  0  0  0  0
  -51.5270    0.1970  -18.8760 C   0  0  0  0  0  0  0  0  0  0  0  0
  -54.6540    2.6060  -21.0330 N   0  0  0  0  0  0  0  0  0  0  0  0
  -51.6900   -0.1000  -20.2220 N   0  0  0  0  0  0  0  0  0  0  0  0
  -54.9700    2.0530  -23.3080 N   0  0  0  0  0  0  0  0  0  0  0  0
  -55.0130    1.1970  -24.4050 C   0  0  0  0  0  0  0  0  0  0  0  0
  -56.1600    1.1320  -25.2140 C   0  0  0  0  0  0  0  0  0  0  0  0
  -56.1390    0.2810  -26.3160 C   0  0  0  0  0  0  0  0  0  0  0  0
  -55.0380   -0.4320  -26.5810 N   0  0  0  0  0  0  0  0  0  0  0  0
  -53.9750   -0.3920  -25.7730 C   0  0  0  0  0  0  0  0  0  0  0  0
  -53.9650    0.4450  -24.7370 N   0  0  0  0  0  0  0  0  0  0  0  0
  -52.7850   -1.0430  -26.0900 N   0  0  0  0  0  0  0  0  0  0  0  0
  -51.8100   -1.2230  -24.9800 C   0  0  0  0  0  0  0  0  0  0  0  0
  -50.6580   -1.9690  -25.7030 C   0  0  0  0  0  0  0  0  0  0  0  0
  -51.4320   -2.9640  -26.6030 C   0  0  1  0  0  0  0  0  0  0  0  0
  -52.8090   -2.3030  -26.8630 C   0  0  0  0  0  0  0  0  0  0  0  0
  -50.7000   -3.0580  -27.9490 C   0  0  0  0  0  0  0  0  0  0  0  0
  -51.5790   -4.2940  -25.8580 C   0  0  0  0  0  0  0  0  0  0  0  0
  -52.3010   -4.3900  -24.8680 O   0  0  0  0  0  0  0  0  0  0  0  0
  -50.9010   -5.3990  -26.2470 N   0  0  0  0  0  0  0  0  0  0  0  0
  -54.3734    3.1909  -19.0426 H   0  0  0  0  0  0  0  0  0  0  0  0
  -51.4867   -0.8799  -22.0968 H   0  0  0  0  0  0  0  0  0  0  0  0
  -52.9537    0.3304  -22.8036 H   0  0  0  0  0  0  0  0  0  0  0  0
  -49.1692   -1.6743  -21.9928 H   0  0  0  0  0  0  0  0  0  0  0  0
  -49.0325   -0.9509  -20.3543 H   0  0  0  0  0  0  0  0  0  0  0  0
  -49.3748    0.0966  -21.7728 H   0  0  0  0  0  0  0  0  0  0  0  0
  -52.5758   -2.5653  -20.6837 H   0  0  0  0  0  0  0  0  0  0  0  0
  -50.9886   -2.8860  -19.9062 H   0  0  0  0  0  0  0  0  0  0  0  0
  -51.2009   -3.1737  -21.6666 H   0  0  0  0  0  0  0  0  0  0  0  0
  -50.7214    0.0689  -16.8953 H   0  0  0  0  0  0  0  0  0  0  0  0
  -49.5413   -0.2532  -18.2106 H   0  0  0  0  0  0  0  0  0  0  0  0
  -50.7752   -1.4885  -17.7886 H   0  0  0  0  0  0  0  0  0  0  0  0
  -55.4825    2.9414  -23.4027 H   0  0  0  0  0  0  0  0  0  0  0  0
  -57.0367    1.7276  -24.9866 H   0  0  0  0  0  0  0  0  0  0  0  0
  -57.0099    0.1965  -26.9558 H   0  0  0  0  0  0  0  0  0  0  0  0
  -52.2340   -1.8297  -24.1663 H   0  0  0  0  0  0  0  0  0  0  0  0
  -51.4736   -0.2555  -24.5790 H   0  0  0  0  0  0  0  0  0  0  0  0
  -50.0125   -2.4977  -24.9862 H   0  0  0  0  0  0  0  0  0  0  0  0
  -50.0492   -1.2773  -26.3038 H   0  0  0  0  0  0  0  0  0  0  0  0
  -52.9412   -2.0956  -27.9351 H   0  0  0  0  0  0  0  0  0  0  0  0
  -53.6225   -2.9553  -26.5127 H   0  0  0  0  0  0  0  0  0  0  0  0
  -49.7152   -3.5245  -27.7990 H   0  0  0  0  0  0  0  0  0  0  0  0
  -50.5679   -2.0487  -28.3658 H   0  0  0  0  0  0  0  0  0  0  0  0
  -51.2923   -3.6682  -28.6467 H   0  0  0  0  0  0  0  0  0  0  0  0
  -51.0128   -6.2567  -25.7452 H   0  0  0  0  0  0  0  0  0  0  0  0
  -50.2883   -5.3577  -27.0362 H   0  0  0  0  0  0  0  0  0  0  0  0
  1  2  2  0  0  0  0
  1  9  1  0  0  0  0
  2 12  1  0  0  0  0
  2 30  1  0  0  0  0
  3  7  1  0  0  0  0
  3  8  1  0  0  0  0
  3 31  1  0  0  0  0
  4 12  2  0  0  0  0
  4 14  1  0  0  0  0
  5  4  1  0  0  0  0
  5 32  1  0  0  0  0
  6  1  1  0  0  0  0
  6  5  2  0  0  0  0
  6 13  1  0  0  0  0
  7 33  1  0  0  0  0
  7 34  1  0  0  0  0
  7 35  1  0  0  0  0
  8 36  1  0  0  0  0
  8 37  1  0  0  0  0
  8 38  1  0  0  0  0
  9 11  2  0  0  0  0
 10 39  1  0  0  0  0
 10 40  1  0  0  0  0
 10 41  1  0  0  0  0
 11 10  1  0  0  0  0
 11 13  1  0  0  0  0
 13  3  1  0  0  0  0
 14 15  1  0  0  0  0
 14 42  1  0  0  0  0
 15 16  2  0  0  0  0
 15 20  1  0  0  0  0
 16 17  1  0  0  0  0
 16 43  1  0  0  0  0
 17 18  2  0  0  0  0
 17 44  1  0  0  0  0
 18 19  1  0  0  0  0
 19 20  2  0  0  0  0
 19 21  1  0  0  0  0
 21 22  1  0  0  0  0
 21 25  1  0  0  0  0
 22 23  1  0  0  0  0
 22 45  1  0  0  0  0
 22 46  1  0  0  0  0
 23 24  1  0  0  0  0
 23 47  1  0  0  0  0
 23 48  1  0  0  0  0
 24 25  1  0  0  0  0
 24 26  1  0  0  0  0
 24 27  1  1  0  0  0
 25 49  1  0  0  0  0
 25 50  1  0  0  0  0
 26 51  1  0  0  0  0
 26 52  1  0  0  0  0
 26 53  1  0  0  0  0
 27 28  2  0  0  0  0
 27 29  1  0  0  0  0
 29 54  1  0  0  0  0
 29 55  1  0  0  0  0
M  END
