5cf8_ligand
 OpenBabel08222323353D

 60 65  0  0  0  0  0  0  0  0999 V2000
   -1.6530   46.8520    0.7090 N   0  0  0  0  0  0  0  0  0  0  0  0
   -1.8800   47.4350   -0.5340 C   0  0  0  0  0  0  0  0  0  0  0  0
   -0.4280   46.8800    1.5260 C   0  0  0  0  0  0  0  0  0  0  0  0
   -0.9010   48.3500   -1.1570 C   0  0  0  0  0  0  0  0  0  0  0  0
    0.4610   45.7110    1.1510 C   0  0  0  0  0  0  0  0  0  0  0  0
   -0.1050   49.5520   -3.1170 C   0  0  0  0  0  0  0  0  0  0  0  0
   -1.1490   47.2700   -3.4080 C   0  0  0  0  0  0  0  0  0  0  0  0
   -0.8500   50.3620   -4.1190 C   0  0  0  0  0  0  0  0  0  0  0  0
   -0.5540   50.9290   -2.7710 C   0  0  0  0  0  0  0  0  0  0  0  0
   -0.7690   45.8740   -3.0580 C   0  0  0  0  0  0  0  0  0  0  0  0
   -6.3820   45.8320   -1.7630 C   0  0  0  0  0  0  0  0  0  0  0  0
   -3.1200   47.0570   -0.9850 C   0  0  0  0  0  0  0  0  0  0  0  0
   -3.7150   43.4580    5.8150 C   0  0  0  0  0  0  0  0  0  0  0  0
   -3.6910   46.2110    0.0040 C   0  0  0  0  0  0  0  0  0  0  0  0
   -2.7550   46.1120    1.0440 C   0  0  0  0  0  0  0  0  0  0  0  0
   -2.8400   45.3930    2.1690 N   0  0  0  0  0  0  0  0  0  0  0  0
   -3.9620   44.6940    2.3660 C   0  0  0  0  0  0  0  0  0  0  0  0
   -4.9930   44.6990    1.3990 C   0  0  0  0  0  0  0  0  0  0  0  0
   -4.8640   45.4670    0.2410 C   0  0  0  0  0  0  0  0  0  0  0  0
   -4.1290   44.0430    3.5680 N   0  0  0  0  0  0  0  0  0  0  0  0
   -6.2140   44.0430    1.4100 N   0  0  0  0  0  0  0  0  0  0  0  0
   -6.7790   44.4130    0.2810 C   0  0  0  0  0  0  0  0  0  0  0  0
   -6.0280   45.2670   -0.4680 N   0  0  0  0  0  0  0  0  0  0  0  0
   -0.7890   48.3900   -2.5010 N   0  0  0  0  0  0  0  0  0  0  0  0
   -0.2850   49.1180   -0.4280 O   0  0  0  0  0  0  0  0  0  0  0  0
   -0.0500   46.5930   -4.1510 C   0  0  0  0  0  0  0  0  0  0  0  0
   -3.2470   44.0520    4.6500 C   0  0  0  0  0  0  0  0  0  0  0  0
   -2.7860   43.7160    6.7720 C   0  0  0  0  0  0  0  0  0  0  0  0
   -1.7900   44.3890    6.1700 N   0  0  0  0  0  0  0  0  0  0  0  0
   -2.0530   44.6200    4.8370 N   0  0  0  0  0  0  0  0  0  0  0  0
   -2.7830   43.3920    8.2270 C   0  0  0  0  0  0  0  0  0  0  0  0
   -0.5280   44.8510    6.7470 C   0  0  0  0  0  0  0  0  0  0  0  0
   -0.6963   46.8090    2.5904 H   0  0  0  0  0  0  0  0  0  0  0  0
    0.1107   47.8219    1.3457 H   0  0  0  0  0  0  0  0  0  0  0  0
    1.3750   45.7345    1.7626 H   0  0  0  0  0  0  0  0  0  0  0  0
    0.7301   45.7816    0.0868 H   0  0  0  0  0  0  0  0  0  0  0  0
   -0.0769   44.7686    1.3315 H   0  0  0  0  0  0  0  0  0  0  0  0
    0.9642   49.3333   -3.2548 H   0  0  0  0  0  0  0  0  0  0  0  0
   -2.1148   47.4735   -3.8935 H   0  0  0  0  0  0  0  0  0  0  0  0
   -1.8819   50.0916   -4.3875 H   0  0  0  0  0  0  0  0  0  0  0  0
   -0.3306   50.7529   -5.0063 H   0  0  0  0  0  0  0  0  0  0  0  0
    0.1838   51.7378   -2.6642 H   0  0  0  0  0  0  0  0  0  0  0  0
   -1.3675   51.0765   -2.0454 H   0  0  0  0  0  0  0  0  0  0  0  0
   -1.4470   45.0422   -3.2998 H   0  0  0  0  0  0  0  0  0  0  0  0
   -0.2569   45.6652   -2.1071 H   0  0  0  0  0  0  0  0  0  0  0  0
   -7.3811   45.4778   -2.0568 H   0  0  0  0  0  0  0  0  0  0  0  0
   -5.6448   45.5150   -2.5153 H   0  0  0  0  0  0  0  0  0  0  0  0
   -6.3876   46.9299   -1.6949 H   0  0  0  0  0  0  0  0  0  0  0  0
   -3.5811   47.3510   -1.9267 H   0  0  0  0  0  0  0  0  0  0  0  0
   -4.6409   42.8978    5.9368 H   0  0  0  0  0  0  0  0  0  0  0  0
   -4.9928   43.4934    3.6801 H   0  0  0  0  0  0  0  0  0  0  0  0
   -7.7637   44.0658   -0.0283 H   0  0  0  0  0  0  0  0  0  0  0  0
    0.9919   46.9144   -4.0058 H   0  0  0  0  0  0  0  0  0  0  0  0
   -0.1981   46.2914   -5.1984 H   0  0  0  0  0  0  0  0  0  0  0  0
   -3.6996   42.8397    8.4815 H   0  0  0  0  0  0  0  0  0  0  0  0
   -2.7426   44.3238    8.8101 H   0  0  0  0  0  0  0  0  0  0  0  0
   -1.9047   42.7733    8.4631 H   0  0  0  0  0  0  0  0  0  0  0  0
    0.0598   45.3696    5.9753 H   0  0  0  0  0  0  0  0  0  0  0  0
    0.0410   43.9880    7.1230 H   0  0  0  0  0  0  0  0  0  0  0  0
   -0.7356   45.5429    7.5765 H   0  0  0  0  0  0  0  0  0  0  0  0
  1  2  1  0  0  0  0
  1  3  1  0  0  0  0
  2  4  1  0  0  0  0
  3  5  1  0  0  0  0
  3 33  1  0  0  0  0
  3 34  1  0  0  0  0
  4 24  1  0  0  0  0
  4 25  2  0  0  0  0
  5 35  1  0  0  0  0
  5 36  1  0  0  0  0
  5 37  1  0  0  0  0
  6  8  1  0  0  0  0
  6  9  1  0  0  0  0
  6 38  1  0  0  0  0
  7 10  1  0  0  0  0
  7 26  1  0  0  0  0
  7 39  1  0  0  0  0
  8 40  1  0  0  0  0
  8 41  1  0  0  0  0
  9  8  1  0  0  0  0
  9 42  1  0  0  0  0
  9 43  1  0  0  0  0
 10 44  1  0  0  0  0
 10 45  1  0  0  0  0
 11 46  1  0  0  0  0
 11 47  1  0  0  0  0
 11 48  1  0  0  0  0
 12  2  2  0  0  0  0
 12 49  1  0  0  0  0
 13 28  2  0  0  0  0
 13 50  1  0  0  0  0
 14 12  1  0  0  0  0
 15  1  1  0  0  0  0
 15 14  2  0  0  0  0
 16 15  1  0  0  0  0
 17 16  2  0  0  0  0
 17 18  1  0  0  0  0
 18 19  2  0  0  0  0
 18 21  1  0  0  0  0
 19 14  1  0  0  0  0
 19 23  1  0  0  0  0
 20 17  1  0  0  0  0
 20 27  1  0  0  0  0
 20 51  1  0  0  0  0
 21 22  2  0  0  0  0
 22 23  1  0  0  0  0
 22 52  1  0  0  0  0
 23 11  1  0  0  0  0
 24  6  1  0  0  0  0
 24  7  1  0  0  0  0
 26 10  1  0  0  0  0
 26 53  1  0  0  0  0
 26 54  1  0  0  0  0
 27 13  1  0  0  0  0
 27 30  2  0  0  0  0
 28 29  1  0  0  0  0
 28 31  1  0  0  0  0
 29 30  1  0  0  0  0
 29 32  1  0  0  0  0
 31 55  1  0  0  0  0
 31 56  1  0  0  0  0
 31 57  1  0  0  0  0
 32 58  1  0  0  0  0
 32 59  1  0  0  0  0
 32 60  1  0  0  0  0
M  END
