5cfa_ligand
 OpenBabel08222323353D

154155  0  0  1  0  0  0  0  0999 V2000
    6.0480    4.6050   32.6170 N   0  3  0  0  0  0  0  0  0  0  0  0
    5.9690    6.0670   32.7050 C   0  0  2  0  0  0  0  0  0  0  0  0
    5.9900    6.7410   31.3380 C   0  0  0  0  0  0  0  0  0  0  0  0
    5.0030    6.7300   30.6070 O   0  0  0  0  0  0  0  0  0  0  0  0
    7.1040    6.6070   33.5650 C   0  0  0  0  0  0  0  0  0  0  0  0
    7.1200    7.3470   31.0140 N   0  0  0  0  0  0  0  0  0  0  0  0
    7.2660    8.0370   29.7600 C   0  0  2  0  0  0  0  0  0  0  0  0
    8.2110    7.2790   28.9050 C   0  0  0  0  0  0  0  0  0  0  0  0
    8.9670    6.4120   29.3580 O   0  0  0  0  0  0  0  0  0  0  0  0
    7.7990    9.4450   29.9390 C   0  0  0  0  0  0  0  0  0  0  0  0
    6.8210   10.3650   30.6270 C   0  0  0  0  0  0  0  0  0  0  0  0
    7.5400   11.6160   30.9890 C   0  0  0  0  0  0  0  0  0  0  0  0
    6.5690   12.5850   31.5900 C   0  0  0  0  0  0  0  0  0  0  0  0
    7.2160   13.8500   32.0000 N   0  3  0  0  0  0  0  0  0  0  0  0
    8.2080    7.6420   27.6400 N   0  0  0  0  0  0  0  0  0  0  0  0
    9.0630    6.9370   26.7070 C   0  0  2  0  0  0  0  0  0  0  0  0
    9.7880    8.1250   26.0830 C   0  0  0  0  0  0  0  0  0  0  0  0
    9.2250    9.2240   26.0370 O   0  0  0  0  0  0  0  0  0  0  0  0
    8.2740    6.0810   25.7040 C   0  0  0  0  0  0  0  0  0  0  0  0
    6.9060    5.5190   26.2920 C   0  0  0  0  0  0  0  0  0  0  0  0
    5.9680    5.1900   25.1080 C   0  0  0  0  0  0  0  0  0  0  0  0
    6.3310    4.2930   24.3580 O   0  0  0  0  0  0  0  0  0  0  0  0
    4.9570    6.0590   24.7780 N   0  0  0  0  0  0  0  0  0  0  0  0
   11.0150    7.9350   25.6110 N   0  0  0  0  0  0  0  0  0  0  0  0
   11.8540    9.0740   25.2510 C   0  0  2  0  0  0  0  0  0  0  0  0
   12.5710    8.8920   23.9290 C   0  0  0  0  0  0  0  0  0  0  0  0
   12.8450    7.7740   23.4880 O   0  0  0  0  0  0  0  0  0  0  0  0
   12.9140    9.3210   26.3230 C   0  0  0  0  0  0  0  0  0  0  0  0
   12.3780    9.8720   27.6090 C   0  0  0  0  0  0  0  0  0  0  0  0
   12.2440   11.2390   27.7980 C   0  0  0  0  0  0  0  0  0  0  0  0
   12.0350    9.0170   28.6430 C   0  0  0  0  0  0  0  0  0  0  0  0
   11.7680   11.7390   28.9980 C   0  0  0  0  0  0  0  0  0  0  0  0
   11.5550    9.5180   29.8500 C   0  0  0  0  0  0  0  0  0  0  0  0
   11.4270   10.8810   30.0180 C   0  0  0  0  0  0  0  0  0  0  0  0
   12.9110   10.0280   23.3340 N   0  0  0  0  0  0  0  0  0  0  0  0
   13.6940   10.0540   22.1110 C   0  0  2  0  0  0  0  0  0  0  0  0
   14.6460   11.2410   22.1150 C   0  0  0  0  0  0  0  0  0  0  0  0
   14.5080   12.1870   22.9040 O   0  0  0  0  0  0  0  0  0  0  0  0
   12.7900   10.1170   20.8730 C   0  0  2  0  0  0  0  0  0  0  0  0
   13.5890    9.9620   19.6910 O   0  0  0  0  0  0  0  0  0  0  0  0
   12.0620   11.4390   20.8090 C   0  0  0  0  0  0  0  0  0  0  0  0
   15.6120   11.1890   21.2030 N   0  0  0  0  0  0  0  0  0  0  0  0
   16.5560   12.2680   21.0030 C   0  0  2  0  0  0  0  0  0  0  0  0
   16.0200   13.2080   19.9420 C   0  0  0  0  0  0  0  0  0  0  0  0
   15.4230   12.7700   18.9570 O   0  0  0  0  0  0  0  0  0  0  0  0
   17.9190   11.7190   20.5770 C   0  0  0  0  0  0  0  0  0  0  0  0
   18.8210   12.7560   20.2250 O   0  0  0  0  0  0  0  0  0  0  0  0
   16.2280   14.5000   20.1560 N   0  0  0  0  0  0  0  0  0  0  0  0
   15.8480   15.4980   19.1770 C   0  0  2  0  0  0  0  0  0  0  0  0
   17.0020   16.4630   18.9450 C   0  0  0  0  0  0  0  0  0  0  0  0
   18.0500   16.3690   19.5870 O   0  0  0  0  0  0  0  0  0  0  0  0
   14.6020   16.2590   19.6270 C   0  0  0  0  0  0  0  0  0  0  0  0
   14.1630   17.1270   18.6030 O   0  0  0  0  0  0  0  0  0  0  0  0
   16.7990   17.3880   18.0180 N   0  0  0  0  0  0  0  0  0  0  0  0
   17.8030   18.3890   17.7030 C   0  0  2  0  0  0  0  0  0  0  0  0
   17.3300   19.7570   18.1830 C   0  0  0  0  0  0  0  0  0  0  0  0
   16.1560   20.1020   18.0340 O   0  0  0  0  0  0  0  0  0  0  0  0
   18.0850   18.4200   16.1930 C   0  0  2  0  0  0  0  0  0  0  0  0
   18.2400   17.0780   15.7150 O   0  0  0  0  0  0  0  0  0  0  0  0
   19.3490   19.2150   15.8890 C   0  0  0  0  0  0  0  0  0  0  0  0
   18.2330   20.5240   18.7880 N   0  0  0  0  0  0  0  0  0  0  0  0
   17.9130   21.8910   19.1690 C   0  0  2  0  0  0  0  0  0  0  0  0
   18.3750   22.8110   18.0620 C   0  0  0  0  0  0  0  0  0  0  0  0
   19.3640   22.5240   17.3920 O   0  0  0  0  0  0  0  0  0  0  0  0
   18.5810   22.2770   20.4800 C   0  0  0  0  0  0  0  0  0  0  0  0
   18.0770   21.4870   21.5230 O   0  0  0  0  0  0  0  0  0  0  0  0
   17.6680   23.9200   17.8750 N   0  0  0  0  0  0  0  0  0  0  0  0
   17.9720   24.8190   16.7680 C   0  0  2  0  0  0  0  0  0  0  0  0
   17.9700   26.2860   17.1940 C   0  0  0  0  0  0  0  0  0  0  0  0
   18.5220   26.6470   18.2350 O   0  5  0  0  0  0  0  0  0  0  0  0
   16.9680   24.6190   15.6370 C   0  0  0  0  0  0  0  0  0  0  0  0
   16.9730   23.2570   14.9700 C   0  0  0  0  0  0  0  0  0  0  0  0
   18.0380   22.8550   14.1690 C   0  0  0  0  0  0  0  0  0  0  0  0
   15.8970   22.3840   15.1210 C   0  0  0  0  0  0  0  0  0  0  0  0
   18.0370   21.6180   13.5460 C   0  0  0  0  0  0  0  0  0  0  0  0
   15.8880   21.1420   14.5020 C   0  0  0  0  0  0  0  0  0  0  0  0
   16.9620   20.7660   13.7150 C   0  0  0  0  0  0  0  0  0  0  0  0
   16.9600   19.5340   13.0950 O   0  0  0  0  0  0  0  0  0  0  0  0
   17.4160   27.1470   16.5080 O   0  0  0  0  0  0  0  0  0  0  0  0
    6.0305    4.2111   33.5447 H   0  0  0  0  0  0  0  0  0  0  0  0
    6.9052    4.3419   32.1565 H   0  0  0  0  0  0  0  0  0  0  0  0
    5.2627    4.2572   32.0895 H   0  0  0  0  0  0  0  0  0  0  0  0
    5.0159    6.3221   33.1914 H   0  0  0  0  0  0  0  0  0  0  0  0
    7.0316    7.7032   33.6216 H   0  0  0  0  0  0  0  0  0  0  0  0
    8.0688    6.3259   33.1176 H   0  0  0  0  0  0  0  0  0  0  0  0
    7.0314    6.1820   34.5770 H   0  0  0  0  0  0  0  0  0  0  0  0
    7.8885    7.3252   31.6535 H   0  0  0  0  0  0  0  0  0  0  0  0
    6.2840    8.0887   29.2670 H   0  0  0  0  0  0  0  0  0  0  0  0
    8.0317    9.8600   28.9472 H   0  0  0  0  0  0  0  0  0  0  0  0
    8.7181    9.3975   30.5415 H   0  0  0  0  0  0  0  0  0  0  0  0
    6.4312    9.8828   31.5356 H   0  0  0  0  0  0  0  0  0  0  0  0
    5.9869   10.5973   29.9485 H   0  0  0  0  0  0  0  0  0  0  0  0
    7.9889   12.0568   30.0867 H   0  0  0  0  0  0  0  0  0  0  0  0
    8.3313   11.3879   31.7183 H   0  0  0  0  0  0  0  0  0  0  0  0
    6.1084   12.1209   32.4746 H   0  0  0  0  0  0  0  0  0  0  0  0
    5.7900   12.8113   30.8471 H   0  0  0  0  0  0  0  0  0  0  0  0
    6.5252   14.4674   32.3970 H   0  0  0  0  0  0  0  0  0  0  0  0
    7.6360   14.2888   31.1955 H   0  0  0  0  0  0  0  0  0  0  0  0
    7.9278   13.6561   32.6869 H   0  0  0  0  0  0  0  0  0  0  0  0
    7.6251    8.3922   27.3280 H   0  0  0  0  0  0  0  0  0  0  0  0
    9.7707    6.2818   27.2360 H   0  0  0  0  0  0  0  0  0  0  0  0
    8.9010    5.2284   25.4041 H   0  0  0  0  0  0  0  0  0  0  0  0
    8.0472    6.6977   24.8218 H   0  0  0  0  0  0  0  0  0  0  0  0
    6.4387    6.2777   26.9370 H   0  0  0  0  0  0  0  0  0  0  0  0
    7.0991    4.6082   26.8778 H   0  0  0  0  0  0  0  0  0  0  0  0
    4.3480    5.8501   24.0129 H   0  0  0  0  0  0  0  0  0  0  0  0
    4.8299    6.9007   25.3028 H   0  0  0  0  0  0  0  0  0  0  0  0
   11.3664    7.0052   25.5015 H   0  0  0  0  0  0  0  0  0  0  0  0
   11.2068    9.9603   25.1770 H   0  0  0  0  0  0  0  0  0  0  0  0
   13.6483   10.0353   25.9224 H   0  0  0  0  0  0  0  0  0  0  0  0
   13.4130    8.3650   26.5400 H   0  0  0  0  0  0  0  0  0  0  0  0
   12.5140   11.9214   27.0002 H   0  0  0  0  0  0  0  0  0  0  0  0
   12.1414    7.9463   28.5112 H   0  0  0  0  0  0  0  0  0  0  0  0
   11.6637   12.8093   29.1343 H   0  0  0  0  0  0  0  0  0  0  0  0
   11.2837    8.8414   30.6523 H   0  0  0  0  0  0  0  0  0  0  0  0
   11.0566   11.2774   30.9565 H   0  0  0  0  0  0  0  0  0  0  0  0
   12.6189   10.8938   23.7404 H   0  0  0  0  0  0  0  0  0  0  0  0
   14.2873    9.1291   22.0612 H   0  0  0  0  0  0  0  0  0  0  0  0
   12.0528    9.3022   20.9247 H   0  0  0  0  0  0  0  0  0  0  0  0
   14.0329    9.1225   19.7180 H   0  0  0  0  0  0  0  0  0  0  0  0
   11.4211   11.4617   19.9153 H   0  0  0  0  0  0  0  0  0  0  0  0
   12.7939   12.2585   20.7563 H   0  0  0  0  0  0  0  0  0  0  0  0
   11.4408   11.5595   21.7088 H   0  0  0  0  0  0  0  0  0  0  0  0
   15.6896   10.3716   20.6322 H   0  0  0  0  0  0  0  0  0  0  0  0
   16.6747   12.8200   21.9470 H   0  0  0  0  0  0  0  0  0  0  0  0
   17.7805   11.0583   19.7085 H   0  0  0  0  0  0  0  0  0  0  0  0
   18.3470   11.1435   21.4110 H   0  0  0  0  0  0  0  0  0  0  0  0
   18.4613   13.2549   19.5010 H   0  0  0  0  0  0  0  0  0  0  0  0
   16.6562   14.7917   21.0113 H   0  0  0  0  0  0  0  0  0  0  0  0
   15.6204   14.9882   18.2292 H   0  0  0  0  0  0  0  0  0  0  0  0
   14.8407   16.8481   20.5248 H   0  0  0  0  0  0  0  0  0  0  0  0
   13.8027   15.5406   19.8616 H   0  0  0  0  0  0  0  0  0  0  0  0
   13.9546   16.6198   17.8272 H   0  0  0  0  0  0  0  0  0  0  0  0
   15.9308   17.3970   17.5218 H   0  0  0  0  0  0  0  0  0  0  0  0
   18.7348   18.1319   18.2281 H   0  0  0  0  0  0  0  0  0  0  0  0
   17.2344   18.8925   15.6800 H   0  0  0  0  0  0  0  0  0  0  0  0
   18.4145   17.0938   14.7813 H   0  0  0  0  0  0  0  0  0  0  0  0
   19.5263   19.2207   14.8034 H   0  0  0  0  0  0  0  0  0  0  0  0
   20.2060   18.7499   16.3981 H   0  0  0  0  0  0  0  0  0  0  0  0
   19.2271   20.2483   16.2460 H   0  0  0  0  0  0  0  0  0  0  0  0
   19.1424   20.1566   18.9832 H   0  0  0  0  0  0  0  0  0  0  0  0
   16.8235   21.9840   19.2886 H   0  0  0  0  0  0  0  0  0  0  0  0
   18.3784   23.3367   20.6945 H   0  0  0  0  0  0  0  0  0  0  0  0
   19.6666   22.1209   20.3961 H   0  0  0  0  0  0  0  0  0  0  0  0
   17.1395   21.6222   21.5966 H   0  0  0  0  0  0  0  0  0  0  0  0
   16.9193   24.1406   18.5001 H   0  0  0  0  0  0  0  0  0  0  0  0
   18.9764   24.5713   16.3940 H   0  0  0  0  0  0  0  0  0  0  0  0
   17.1793   25.3721   14.8636 H   0  0  0  0  0  0  0  0  0  0  0  0
   15.9617   24.7877   16.0479 H   0  0  0  0  0  0  0  0  0  0  0  0
   18.8820   23.5210   14.0305 H   0  0  0  0  0  0  0  0  0  0  0  0
   15.0525   22.6804   15.7326 H   0  0  0  0  0  0  0  0  0  0  0  0
   18.8762   21.3193   12.9282 H   0  0  0  0  0  0  0  0  0  0  0  0
   15.0463   20.4718   14.6340 H   0  0  0  0  0  0  0  0  0  0  0  0
   17.7621   19.4303   12.5965 H   0  0  0  0  0  0  0  0  0  0  0  0
  1  2  1  0  0  0  0
  1 80  1  0  0  0  0
  1 81  1  0  0  0  0
  1 82  1  0  0  0  0
  2  3  1  0  0  0  0
  2  5  1  0  0  0  0
  2 83  1  1  0  0  0
  3  4  2  0  0  0  0
  3  6  1  0  0  0  0
  5 84  1  0  0  0  0
  5 85  1  0  0  0  0
  5 86  1  0  0  0  0
  6  7  1  0  0  0  0
  6 87  1  0  0  0  0
  7  8  1  0  0  0  0
  7 10  1  0  0  0  0
  7 88  1  6  0  0  0
  8  9  2  0  0  0  0
  8 15  1  0  0  0  0
 10 11  1  0  0  0  0
 10 89  1  0  0  0  0
 10 90  1  0  0  0  0
 11 12  1  0  0  0  0
 11 91  1  0  0  0  0
 11 92  1  0  0  0  0
 12 13  1  0  0  0  0
 12 93  1  0  0  0  0
 12 94  1  0  0  0  0
 13 14  1  0  0  0  0
 13 95  1  0  0  0  0
 13 96  1  0  0  0  0
 14 97  1  0  0  0  0
 14 98  1  0  0  0  0
 14 99  1  0  0  0  0
 15 16  1  0  0  0  0
 15100  1  0  0  0  0
 16 17  1  0  0  0  0
 16 19  1  0  0  0  0
 16101  1  1  0  0  0
 17 18  2  0  0  0  0
 17 24  1  0  0  0  0
 19 20  1  0  0  0  0
 19102  1  0  0  0  0
 19103  1  0  0  0  0
 20 21  1  0  0  0  0
 20104  1  0  0  0  0
 20105  1  0  0  0  0
 21 22  2  0  0  0  0
 21 23  1  0  0  0  0
 23106  1  0  0  0  0
 23107  1  0  0  0  0
 24 25  1  0  0  0  0
 24108  1  0  0  0  0
 25 26  1  0  0  0  0
 25 28  1  0  0  0  0
 25109  1  6  0  0  0
 26 27  2  0  0  0  0
 26 35  1  0  0  0  0
 28 29  1  0  0  0  0
 28110  1  0  0  0  0
 28111  1  0  0  0  0
 29 30  2  0  0  0  0
 29 31  1  0  0  0  0
 30 32  1  0  0  0  0
 30112  1  0  0  0  0
 31 33  2  0  0  0  0
 31113  1  0  0  0  0
 32 34  2  0  0  0  0
 32114  1  0  0  0  0
 33 34  1  0  0  0  0
 33115  1  0  0  0  0
 34116  1  0  0  0  0
 35 36  1  0  0  0  0
 35117  1  0  0  0  0
 36 37  1  0  0  0  0
 36 39  1  0  0  0  0
 36118  1  6  0  0  0
 37 38  2  0  0  0  0
 37 42  1  0  0  0  0
 39 40  1  0  0  0  0
 39 41  1  0  0  0  0
 39119  1  1  0  0  0
 40120  1  0  0  0  0
 41121  1  0  0  0  0
 41122  1  0  0  0  0
 41123  1  0  0  0  0
 42 43  1  0  0  0  0
 42124  1  0  0  0  0
 43 44  1  0  0  0  0
 43 46  1  0  0  0  0
 43125  1  1  0  0  0
 44 45  2  0  0  0  0
 44 48  1  0  0  0  0
 46 47  1  0  0  0  0
 46126  1  0  0  0  0
 46127  1  0  0  0  0
 47128  1  0  0  0  0
 48 49  1  0  0  0  0
 48129  1  0  0  0  0
 49 50  1  0  0  0  0
 49 52  1  0  0  0  0
 49130  1  6  0  0  0
 50 51  2  0  0  0  0
 50 54  1  0  0  0  0
 52 53  1  0  0  0  0
 52131  1  0  0  0  0
 52132  1  0  0  0  0
 53133  1  0  0  0  0
 54 55  1  0  0  0  0
 54134  1  0  0  0  0
 55 56  1  0  0  0  0
 55 58  1  0  0  0  0
 55135  1  1  0  0  0
 56 57  2  0  0  0  0
 56 61  1  0  0  0  0
 58 59  1  0  0  0  0
 58 60  1  0  0  0  0
 58136  1  6  0  0  0
 59137  1  0  0  0  0
 60138  1  0  0  0  0
 60139  1  0  0  0  0
 60140  1  0  0  0  0
 61 62  1  0  0  0  0
 61141  1  0  0  0  0
 62 63  1  0  0  0  0
 62 65  1  0  0  0  0
 62142  1  1  0  0  0
 63 64  2  0  0  0  0
 63 67  1  0  0  0  0
 65 66  1  0  0  0  0
 65143  1  0  0  0  0
 65144  1  0  0  0  0
 66145  1  0  0  0  0
 67 68  1  0  0  0  0
 67146  1  0  0  0  0
 68 69  1  0  0  0  0
 68 71  1  0  0  0  0
 68147  1  6  0  0  0
 69 70  1  0  0  0  0
 69 79  2  0  0  0  0
 71 72  1  0  0  0  0
 71148  1  0  0  0  0
 71149  1  0  0  0  0
 72 73  2  0  0  0  0
 72 74  1  0  0  0  0
 73 75  1  0  0  0  0
 73150  1  0  0  0  0
 74 76  2  0  0  0  0
 74151  1  0  0  0  0
 75 77  2  0  0  0  0
 75152  1  0  0  0  0
 76 77  1  0  0  0  0
 76153  1  0  0  0  0
 77 78  1  0  0  0  0
 78154  1  0  0  0  0
M  CHG  3   1   1  14   1  70  -1
M  END
