5cgd_ligand
 OpenBabel08222323353D

 30 32  0  0  0  0  0  0  0  0999 V2000
  -24.0140   17.9110   44.2310 C   0  0  0  0  0  0  0  0  0  0  0  0
  -23.6170   19.1340   44.8010 C   0  0  0  0  0  0  0  0  0  0  0  0
  -22.6430   19.1570   45.8110 C   0  0  0  0  0  0  0  0  0  0  0  0
  -22.0630   17.9510   46.2510 C   0  0  0  0  0  0  0  0  0  0  0  0
  -22.4650   16.7280   45.6750 C   0  0  0  0  0  0  0  0  0  0  0  0
  -23.4510   16.6890   44.6600 C   0  0  0  0  0  0  0  0  0  0  0  0
  -23.8710   15.4120   44.0470 C   0  0  0  0  0  0  0  0  0  0  0  0
  -24.2220   15.3200   42.7010 C   0  0  0  0  0  0  0  0  0  0  0  0
  -24.6060   14.0640   42.2160 C   0  0  0  0  0  0  0  0  0  0  0  0
  -24.6210   12.9940   43.0330 N   0  0  0  0  0  0  0  0  0  0  0  0
  -24.2710   13.1830   44.2920 C   0  0  0  0  0  0  0  0  0  0  0  0
  -23.8980   14.3290   44.8390 N   0  0  0  0  0  0  0  0  0  0  0  0
  -21.0530   17.9710   47.2960 C   0  0  0  0  0  0  0  0  0  0  0  0
  -20.2510   17.9880   48.1270 N   0  0  0  0  0  0  0  0  0  0  0  0
  -24.3330   20.6070   44.2560 Cl  0  0  0  0  0  0  0  0  0  0  0  0
  -25.6970   13.6790   38.1250 C   0  0  0  0  0  0  0  0  0  0  0  0
  -25.4920   12.4980   38.8600 C   0  0  0  0  0  0  0  0  0  0  0  0
  -25.1310   12.5830   40.2130 C   0  0  0  0  0  0  0  0  0  0  0  0
  -24.9910   13.8610   40.7960 C   0  0  0  0  0  0  0  0  0  0  0  0
  -25.1860   14.9940   40.0800 N   0  0  0  0  0  0  0  0  0  0  0  0
  -25.5320   14.9080   38.7810 C   0  0  0  0  0  0  0  0  0  0  0  0
  -26.0450   13.6380   36.8170 F   0  0  0  0  0  0  0  0  0  0  0  0
  -24.7648   17.9064   43.4492 H   0  0  0  0  0  0  0  0  0  0  0  0
  -22.3380   20.0995   46.2511 H   0  0  0  0  0  0  0  0  0  0  0  0
  -22.0120   15.8037   46.0147 H   0  0  0  0  0  0  0  0  0  0  0  0
  -24.1985   16.1891   42.0536 H   0  0  0  0  0  0  0  0  0  0  0  0
  -24.2911   12.3149   44.9409 H   0  0  0  0  0  0  0  0  0  0  0  0
  -25.6118   11.5307   38.3856 H   0  0  0  0  0  0  0  0  0  0  0  0
  -24.9631   11.6862   40.7984 H   0  0  0  0  0  0  0  0  0  0  0  0
  -25.6889   15.8230   38.2214 H   0  0  0  0  0  0  0  0  0  0  0  0
  1  2  2  0  0  0  0
  1 23  1  0  0  0  0
  2  3  1  0  0  0  0
  2 15  1  0  0  0  0
  3 24  1  0  0  0  0
  4  3  2  0  0  0  0
  4 13  1  0  0  0  0
  5  4  1  0  0  0  0
  5 25  1  0  0  0  0
  6  1  1  0  0  0  0
  6  5  2  0  0  0  0
  7  6  1  0  0  0  0
  7 12  1  0  0  0  0
  8  7  2  0  0  0  0
  8 26  1  0  0  0  0
  9  8  1  0  0  0  0
  9 10  2  0  0  0  0
 10 11  1  0  0  0  0
 11 12  2  0  0  0  0
 11 27  1  0  0  0  0
 13 14  3  0  0  0  0
 16 21  1  0  0  0  0
 16 22  1  0  0  0  0
 17 16  2  0  0  0  0
 17 28  1  0  0  0  0
 18 17  1  0  0  0  0
 18 19  2  0  0  0  0
 18 29  1  0  0  0  0
 19  9  1  0  0  0  0
 19 20  1  0  0  0  0
 20 21  2  0  0  0  0
 21 30  1  0  0  0  0
M  END
