5ct1_ligand
 OpenBabel08222323353D

 30 30  0  0  0  0  0  0  0  0999 V2000
   -0.6290   24.6990  -11.4960 C   0  0  0  0  0  0  0  0  0  0  0  0
   -1.6190   25.8010  -11.8960 C   0  0  0  0  0  0  0  0  0  0  0  0
   -2.4670   26.4220  -10.7720 C   0  0  0  0  0  0  0  0  0  0  0  0
   -1.7210   26.4950   -9.4300 C   0  0  0  0  0  0  0  0  0  0  0  0
   -2.8570   27.7720  -11.1650 N   0  3  0  0  0  0  0  0  0  0  0  0
   -4.2410   28.2060  -11.2820 C   0  0  0  0  0  0  0  0  0  0  0  0
   -4.3480   29.7350  -11.3650 C   0  0  0  0  0  0  0  0  0  0  0  0
   -4.9380   30.3090  -12.8250 S   0  0  0  0  0  0  0  0  0  0  0  0
   -3.9110   31.0910  -13.5590 O   0  0  0  0  0  1  0  0  0  0  0  0
   -5.3510   29.1610  -13.6720 O   0  0  0  0  0  1  0  0  0  0  0  0
   -6.0990   31.2020  -12.5810 O   0  0  0  0  0  1  0  0  0  0  0  0
   -0.8040   25.3100   -9.0890 C   0  0  0  0  0  0  0  0  0  0  0  0
    0.1640   25.0080  -10.2260 C   0  0  0  0  0  0  0  0  0  0  0  0
    0.0829   24.5566  -12.3224 H   0  0  0  0  0  0  0  0  0  0  0  0
   -1.1934   23.7689  -11.3338 H   0  0  0  0  0  0  0  0  0  0  0  0
   -2.3114   25.3722  -12.6354 H   0  0  0  0  0  0  0  0  0  0  0  0
   -1.0411   26.6126  -12.3623 H   0  0  0  0  0  0  0  0  0  0  0  0
   -3.3694   25.8078  -10.6366 H   0  0  0  0  0  0  0  0  0  0  0  0
   -2.4747   26.5743   -8.6327 H   0  0  0  0  0  0  0  0  0  0  0  0
   -1.1018   27.4041   -9.4410 H   0  0  0  0  0  0  0  0  0  0  0  0
   -2.4426   27.9258  -12.0709 H   0  0  0  0  0  0  0  0  0  0  0  0
   -2.4309   28.3890  -10.4914 H   0  0  0  0  0  0  0  0  0  0  0  0
   -4.8006   27.8562  -10.4019 H   0  0  0  0  0  0  0  0  0  0  0  0
   -4.6770   27.7677  -12.1918 H   0  0  0  0  0  0  0  0  0  0  0  0
   -3.3452   30.1592  -11.2085 H   0  0  0  0  0  0  0  0  0  0  0  0
   -5.0199   30.0770  -10.5640 H   0  0  0  0  0  0  0  0  0  0  0  0
   -1.4238   24.4208   -8.9016 H   0  0  0  0  0  0  0  0  0  0  0  0
   -0.2278   25.5528   -8.1840 H   0  0  0  0  0  0  0  0  0  0  0  0
    0.8105   25.8808  -10.3997 H   0  0  0  0  0  0  0  0  0  0  0  0
    0.7842   24.1395   -9.9596 H   0  0  0  0  0  0  0  0  0  0  0  0
  1  2  1  0  0  0  0
  1 13  1  0  0  0  0
  1 14  1  0  0  0  0
  1 15  1  0  0  0  0
  2  3  1  0  0  0  0
  2 16  1  0  0  0  0
  2 17  1  0  0  0  0
  3  4  1  0  0  0  0
  3  5  1  0  0  0  0
  3 18  1  0  0  0  0
  4 12  1  0  0  0  0
  4 19  1  0  0  0  0
  4 20  1  0  0  0  0
  5  6  1  0  0  0  0
  5 21  1  0  0  0  0
  5 22  1  0  0  0  0
  6  7  1  0  0  0  0
  6 23  1  0  0  0  0
  6 24  1  0  0  0  0
  7  8  1  0  0  0  0
  7 25  1  0  0  0  0
  7 26  1  0  0  0  0
  8  9  1  0  0  0  0
  8 10  1  0  0  0  0
  8 11  1  0  0  0  0
 12 13  1  0  0  0  0
 12 27  1  0  0  0  0
 12 28  1  0  0  0  0
 13 29  1  0  0  0  0
 13 30  1  0  0  0  0
M  CHG  1   5   1
M  END
