5ctb_ligand
 OpenBabel08222323353D

 55 59  0  0  0  0  0  0  0  0999 V2000
    6.0360   29.9580   22.9370 N   0  0  0  0  0  0  0  0  0  0  0  0
    5.0410   30.5760   25.1100 C   0  0  0  0  0  0  0  0  0  0  0  0
    4.5960   34.2700   27.7890 N   0  0  0  0  0  0  0  0  0  0  0  0
    3.8930   32.2870   26.9140 C   0  0  0  0  0  0  0  0  0  0  0  0
    5.1640   32.5860   26.3560 C   0  0  0  0  0  0  0  0  0  0  0  0
    5.6500   29.5640   24.2150 C   0  0  0  0  0  0  0  0  0  0  0  0
    4.8030   31.0110   21.0600 C   0  0  0  0  0  0  0  0  0  0  0  0
    7.8210   33.4560   17.7070 C   0  0  0  0  0  0  0  0  0  0  0  0
    7.7960   32.4390   18.6500 C   0  0  0  0  0  0  0  0  0  0  0  0
    5.5580   33.8380   26.9460 C   0  0  0  0  0  0  0  0  0  0  0  0
    5.5850   32.8920   16.9960 C   0  0  0  0  0  0  0  0  0  0  0  0
    4.3750   31.0000   18.0490 C   0  0  0  0  0  0  0  0  0  0  0  0
    6.7230   33.6780   16.8680 C   0  0  0  0  0  0  0  0  0  0  0  0
    1.9080   30.8150   27.2660 C   0  0  0  0  0  0  0  0  0  0  0  0
    3.1950   31.1110   26.5960 C   0  0  0  0  0  0  0  0  0  0  0  0
    3.7880   30.2650   25.6880 C   0  0  0  0  0  0  0  0  0  0  0  0
    5.7500   31.7080   25.4450 C   0  0  0  0  0  0  0  0  0  0  0  0
    3.5950   33.3380   27.7740 N   0  0  0  0  0  0  0  0  0  0  0  0
    5.8600   28.4210   24.6140 O   0  0  0  0  0  0  0  0  0  0  0  0
    6.7370   29.0350   22.0290 C   0  0  0  0  0  0  0  0  0  0  0  0
    5.9020   28.7610   20.7760 C   0  0  0  0  0  0  0  0  0  0  0  0
    5.5020   30.0690   20.0770 C   0  0  0  0  0  0  0  0  0  0  0  0
    5.6540   31.2320   22.3180 C   0  0  0  0  0  0  0  0  0  0  0  0
    4.5940   29.7670   18.8820 C   0  0  0  0  0  0  0  0  0  0  0  0
    3.3230   31.2200   17.4770 O   0  0  0  0  0  0  0  0  0  0  0  0
    5.5430   31.8700   17.9390 C   0  0  0  0  0  0  0  0  0  0  0  0
    6.6510   31.6480   18.7550 C   0  0  0  0  0  0  0  0  0  0  0  0
    6.7290   30.6400   19.6640 O   0  0  0  0  0  0  0  0  0  0  0  0
    9.0240   34.3190   17.5970 C   0  0  0  0  0  0  0  0  0  0  0  0
    6.7780   34.7440   15.8330 C   0  0  0  0  0  0  0  0  0  0  0  0
    3.8376   30.5723   21.3525 H   0  0  0  0  0  0  0  0  0  0  0  0
    4.6315   31.9799   20.5682 H   0  0  0  0  0  0  0  0  0  0  0  0
    8.6501   32.2619   19.2936 H   0  0  0  0  0  0  0  0  0  0  0  0
    6.4924   34.3591   26.7429 H   0  0  0  0  0  0  0  0  0  0  0  0
    4.7271   33.0754   16.3593 H   0  0  0  0  0  0  0  0  0  0  0  0
    1.5115   29.8594   26.8924 H   0  0  0  0  0  0  0  0  0  0  0  0
    1.1892   31.6194   27.0510 H   0  0  0  0  0  0  0  0  0  0  0  0
    2.0674   30.7463   28.3522 H   0  0  0  0  0  0  0  0  0  0  0  0
    3.2868   29.3447   25.4107 H   0  0  0  0  0  0  0  0  0  0  0  0
    6.7256   31.9087   25.0172 H   0  0  0  0  0  0  0  0  0  0  0  0
    2.7302   33.4061   28.3293 H   0  0  0  0  0  0  0  0  0  0  0  0
    6.9219   28.0857   22.5530 H   0  0  0  0  0  0  0  0  0  0  0  0
    7.6967   29.4825   21.7312 H   0  0  0  0  0  0  0  0  0  0  0  0
    4.9914   28.2154   21.0641 H   0  0  0  0  0  0  0  0  0  0  0  0
    6.4919   28.1478   20.0789 H   0  0  0  0  0  0  0  0  0  0  0  0
    6.5651   31.7828   22.0414 H   0  0  0  0  0  0  0  0  0  0  0  0
    5.0744   31.8224   23.0428 H   0  0  0  0  0  0  0  0  0  0  0  0
    5.0637   28.9909   18.2599 H   0  0  0  0  0  0  0  0  0  0  0  0
    3.6231   29.4040   19.2502 H   0  0  0  0  0  0  0  0  0  0  0  0
    9.7760   33.9951   18.3315 H   0  0  0  0  0  0  0  0  0  0  0  0
    8.7447   35.3644   17.7949 H   0  0  0  0  0  0  0  0  0  0  0  0
    9.4427   34.2369   16.5831 H   0  0  0  0  0  0  0  0  0  0  0  0
    7.7507   35.2551   15.8844 H   0  0  0  0  0  0  0  0  0  0  0  0
    5.9720   35.4708   16.0120 H   0  0  0  0  0  0  0  0  0  0  0  0
    6.6521   34.2948   14.8368 H   0  0  0  0  0  0  0  0  0  0  0  0
  1  6  1  0  0  0  0
  2 16  2  0  0  0  0
  2 17  1  0  0  0  0
  3 18  1  0  0  0  0
  4 18  1  0  0  0  0
  5  4  1  0  0  0  0
  5 10  1  0  0  0  0
  6  2  1  0  0  0  0
  6 19  2  0  0  0  0
  7 23  1  0  0  0  0
  7 31  1  0  0  0  0
  7 32  1  0  0  0  0
  8  9  2  0  0  0  0
  8 29  1  0  0  0  0
  9 27  1  0  0  0  0
  9 33  1  0  0  0  0
 10  3  2  0  0  0  0
 10 34  1  0  0  0  0
 11 13  2  0  0  0  0
 11 35  1  0  0  0  0
 12 25  2  0  0  0  0
 12 26  1  0  0  0  0
 13  8  1  0  0  0  0
 13 30  1  0  0  0  0
 14 36  1  0  0  0  0
 14 37  1  0  0  0  0
 14 38  1  0  0  0  0
 15  4  2  0  0  0  0
 15 14  1  0  0  0  0
 16 15  1  0  0  0  0
 16 39  1  0  0  0  0
 17  5  2  0  0  0  0
 17 40  1  0  0  0  0
 18 41  1  0  0  0  0
 20  1  1  0  0  0  0
 20 42  1  0  0  0  0
 20 43  1  0  0  0  0
 21 20  1  0  0  0  0
 21 44  1  0  0  0  0
 21 45  1  0  0  0  0
 22  7  1  0  0  0  0
 22 21  1  0  0  0  0
 22 24  1  0  0  0  0
 22 28  1  0  0  0  0
 23  1  1  0  0  0  0
 23 46  1  0  0  0  0
 23 47  1  0  0  0  0
 24 12  1  0  0  0  0
 24 48  1  0  0  0  0
 24 49  1  0  0  0  0
 26 11  1  0  0  0  0
 26 27  2  0  0  0  0
 27 28  1  0  0  0  0
 29 50  1  0  0  0  0
 29 51  1  0  0  0  0
 29 52  1  0  0  0  0
 30 53  1  0  0  0  0
 30 54  1  0  0  0  0
 30 55  1  0  0  0  0
M  END
