5cte_ligand
 OpenBabel08222323353D

 65 68  0  0  1  0  0  0  0  0999 V2000
    8.7480   -9.6160  -17.3960 N   0  0  0  0  0  0  0  0  0  0  0  0
    6.7980   -9.9940  -15.9480 C   0  0  0  0  0  0  0  0  0  0  0  0
    2.4450   -8.5720  -15.7040 N   0  0  0  0  0  0  0  0  0  0  0  0
    4.1000  -10.1280  -15.5140 C   0  0  0  0  0  0  0  0  0  0  0  0
    4.6960   -8.9030  -15.9120 C   0  0  0  0  0  0  0  0  0  0  0  0
    8.2690   -9.9720  -16.1350 C   0  0  0  0  0  0  0  0  0  0  0  0
   10.7000   -9.9660  -18.8680 C   0  0  0  0  0  0  0  0  0  0  0  0
    8.6100   -9.8910  -25.8090 C   0  0  0  0  0  0  0  0  0  0  0  0
    8.2370   -8.7000  -26.7110 C   0  0  0  0  0  0  0  0  0  0  0  0
    3.6090   -7.9650  -16.0160 C   0  0  0  0  0  0  0  0  0  0  0  0
   11.8210  -10.7080  -21.4130 C   0  0  0  0  0  0  0  0  0  0  0  0
    9.6400   -8.2690  -22.0930 C   0  0  0  0  0  0  0  0  0  0  0  0
    9.4230  -10.2560  -23.6380 C   0  0  0  0  0  0  0  0  0  0  0  0
    4.1780  -12.5250  -14.8280 C   0  0  0  0  0  0  0  0  0  0  0  0
    4.8520  -11.2960  -15.3050 C   0  0  0  0  0  0  0  0  0  0  0  0
    6.2070  -11.2090  -15.5320 C   0  0  0  0  0  0  0  0  0  0  0  0
    6.0740   -8.8350  -16.1190 C   0  0  0  0  0  0  0  0  0  0  0  0
    2.7360   -9.8740  -15.4010 N   0  0  0  0  0  0  0  0  0  0  0  0
    9.0340  -10.2570  -15.2180 O   0  0  0  0  0  0  0  0  0  0  0  0
    7.8710   -9.3280  -18.5360 C   0  0  0  0  0  0  0  0  0  0  0  0
    8.3960  -10.0050  -19.8000 C   0  0  0  0  0  0  0  0  0  0  0  0
    9.8580   -9.6650  -20.0980 C   0  0  0  0  0  0  0  0  0  0  0  0
   10.1580   -9.2690  -17.6190 C   0  0  0  0  0  0  0  0  0  0  0  0
    9.9940   -8.2180  -20.5950 C   0  0  0  0  0  0  0  0  0  0  0  0
    9.8650   -9.6740  -22.4690 N   0  0  0  0  0  0  0  0  0  0  0  0
   10.3080  -10.5040  -21.3280 C   0  0  1  0  0  0  0  0  0  0  0  0
    9.3840  -11.4650  -23.8600 O   0  0  0  0  0  0  0  0  0  0  0  0
    9.0460   -9.3410  -24.5780 O   0  0  0  0  0  0  0  0  0  0  0  0
    9.4510   -7.8120  -26.9590 C   0  0  0  0  0  0  0  0  0  0  0  0
    7.7440   -9.2860  -28.0350 C   0  0  0  0  0  0  0  0  0  0  0  0
    7.1230   -7.8760  -26.0770 C   0  0  0  0  0  0  0  0  0  0  0  0
   11.7289   -9.6215  -19.0488 H   0  0  0  0  0  0  0  0  0  0  0  0
   10.7019  -11.0524  -18.6959 H   0  0  0  0  0  0  0  0  0  0  0  0
    9.4174  -10.4788  -26.2699 H   0  0  0  0  0  0  0  0  0  0  0  0
    7.7332  -10.5354  -25.6481 H   0  0  0  0  0  0  0  0  0  0  0  0
    3.7111   -6.9197  -16.3040 H   0  0  0  0  0  0  0  0  0  0  0  0
   12.0607  -11.3071  -22.3038 H   0  0  0  0  0  0  0  0  0  0  0  0
   12.1713  -11.2337  -20.5125 H   0  0  0  0  0  0  0  0  0  0  0  0
   12.3195   -9.7300  -21.4839 H   0  0  0  0  0  0  0  0  0  0  0  0
   10.2946   -7.6006  -22.6716 H   0  0  0  0  0  0  0  0  0  0  0  0
    8.5899   -7.9849  -22.2557 H   0  0  0  0  0  0  0  0  0  0  0  0
    4.9183  -13.3317  -14.7224 H   0  0  0  0  0  0  0  0  0  0  0  0
    3.4084  -12.8264  -15.5538 H   0  0  0  0  0  0  0  0  0  0  0  0
    3.7067  -12.3300  -13.8534 H   0  0  0  0  0  0  0  0  0  0  0  0
    6.8298  -12.0848  -15.3897 H   0  0  0  0  0  0  0  0  0  0  0  0
    6.5558   -7.9065  -16.4032 H   0  0  0  0  0  0  0  0  0  0  0  0
    2.0353  -10.5765  -15.1246 H   0  0  0  0  0  0  0  0  0  0  0  0
    7.8325   -8.2406  -18.6973 H   0  0  0  0  0  0  0  0  0  0  0  0
    6.8599   -9.7024  -18.3184 H   0  0  0  0  0  0  0  0  0  0  0  0
    7.7803   -9.6816  -20.6523 H   0  0  0  0  0  0  0  0  0  0  0  0
    8.3078  -11.0945  -19.6764 H   0  0  0  0  0  0  0  0  0  0  0  0
   10.7488   -9.5834  -16.7460 H   0  0  0  0  0  0  0  0  0  0  0  0
   10.2450   -8.1800  -17.7478 H   0  0  0  0  0  0  0  0  0  0  0  0
    9.2975   -7.5585  -20.0565 H   0  0  0  0  0  0  0  0  0  0  0  0
   11.0236   -7.8573  -20.4543 H   0  0  0  0  0  0  0  0  0  0  0  0
    9.8099  -11.4847  -21.3275 H   0  0  0  0  0  0  0  0  0  0  0  0
    9.1629   -6.9690  -27.6043 H   0  0  0  0  0  0  0  0  0  0  0  0
   10.2398   -8.3987  -27.4526 H   0  0  0  0  0  0  0  0  0  0  0  0
    9.8263   -7.4275  -25.9992 H   0  0  0  0  0  0  0  0  0  0  0  0
    6.8684   -9.9254  -27.8495 H   0  0  0  0  0  0  0  0  0  0  0  0
    8.5454   -9.8852  -28.4918 H   0  0  0  0  0  0  0  0  0  0  0  0
    7.4636   -8.4688  -28.7159 H   0  0  0  0  0  0  0  0  0  0  0  0
    7.4759   -7.4537  -25.1245 H   0  0  0  0  0  0  0  0  0  0  0  0
    6.2506   -8.5199  -25.8917 H   0  0  0  0  0  0  0  0  0  0  0  0
    6.8384   -7.0595  -26.7569 H   0  0  0  0  0  0  0  0  0  0  0  0
  1  6  1  0  0  0  0
  2 16  2  0  0  0  0
  2 17  1  0  0  0  0
  3 18  1  0  0  0  0
  4 18  1  0  0  0  0
  5  4  1  0  0  0  0
  5 10  1  0  0  0  0
  6  2  1  0  0  0  0
  6 19  2  0  0  0  0
  7 23  1  0  0  0  0
  7 32  1  0  0  0  0
  7 33  1  0  0  0  0
  8  9  1  0  0  0  0
  8 34  1  0  0  0  0
  8 35  1  0  0  0  0
  9 29  1  0  0  0  0
  9 30  1  0  0  0  0
  9 31  1  0  0  0  0
 10  3  2  0  0  0  0
 10 36  1  0  0  0  0
 11 37  1  0  0  0  0
 11 38  1  0  0  0  0
 11 39  1  0  0  0  0
 12 25  1  0  0  0  0
 12 40  1  0  0  0  0
 12 41  1  0  0  0  0
 13 27  2  0  0  0  0
 13 28  1  0  0  0  0
 14 42  1  0  0  0  0
 14 43  1  0  0  0  0
 14 44  1  0  0  0  0
 15  4  2  0  0  0  0
 15 14  1  0  0  0  0
 16 15  1  0  0  0  0
 16 45  1  0  0  0  0
 17  5  2  0  0  0  0
 17 46  1  0  0  0  0
 18 47  1  0  0  0  0
 20  1  1  0  0  0  0
 20 48  1  0  0  0  0
 20 49  1  0  0  0  0
 21 20  1  0  0  0  0
 21 50  1  0  0  0  0
 21 51  1  0  0  0  0
 22  7  1  0  0  0  0
 22 21  1  0  0  0  0
 22 24  1  0  0  0  0
 22 26  1  0  0  0  0
 23  1  1  0  0  0  0
 23 52  1  0  0  0  0
 23 53  1  0  0  0  0
 24 12  1  0  0  0  0
 24 54  1  0  0  0  0
 24 55  1  0  0  0  0
 25 13  1  0  0  0  0
 25 26  1  0  0  0  0
 26 11  1  0  0  0  0
 26 56  1  6  0  0  0
 28  8  1  0  0  0  0
 29 57  1  0  0  0  0
 29 58  1  0  0  0  0
 29 59  1  0  0  0  0
 30 60  1  0  0  0  0
 30 61  1  0  0  0  0
 30 62  1  0  0  0  0
 31 63  1  0  0  0  0
 31 64  1  0  0  0  0
 31 65  1  0  0  0  0
M  END
