5cvd_ligand
 OpenBabel08222323353D

113113  0  0  1  0  0  0  0  0999 V2000
  -17.0770   19.7300  -31.3660 O   0  0  0  0  0  0  0  0  0  0  0  0
  -17.6490   20.0810  -32.4340 C   0  0  0  0  0  0  0  0  0  0  0  0
  -18.8710   20.9920  -32.3740 C   0  0  0  0  0  0  0  0  0  0  0  0
  -18.7060   21.8400  -31.2090 N   0  3  0  0  0  0  0  0  0  0  0  0
  -17.6870   22.8260  -31.4480 C   0  0  0  0  0  0  0  0  0  0  0  0
  -19.9380   22.5110  -30.8960 C   0  0  0  0  0  0  0  0  0  0  0  0
  -17.2350   19.6880  -33.6430 N   0  0  0  0  0  0  0  0  0  0  0  0
  -15.9600   18.9800  -33.7910 C   0  0  2  0  0  0  0  0  0  0  0  0
  -14.8380   19.7740  -33.1400 C   0  0  0  0  0  0  0  0  0  0  0  0
  -14.8560   21.0020  -33.2190 O   0  0  0  0  0  0  0  0  0  0  0  0
  -15.7480   18.9450  -35.3040 C   0  0  0  0  0  0  0  0  0  0  0  0
  -17.0720   19.1530  -35.9000 C   0  0  0  0  0  0  0  0  0  0  0  0
  -17.8790   19.9590  -34.9360 C   0  0  0  0  0  0  0  0  0  0  0  0
  -13.8830   19.0800  -32.5310 N   0  0  0  0  0  0  0  0  0  0  0  0
  -12.7780   19.7230  -31.8350 C   0  0  2  0  0  0  0  0  0  0  0  0
  -11.4840   18.9710  -32.0580 C   0  0  0  0  0  0  0  0  0  0  0  0
  -11.4560   17.7460  -32.0020 O   0  0  0  0  0  0  0  0  0  0  0  0
  -13.0440   19.7630  -30.3230 C   0  0  0  0  0  0  0  0  0  0  0  0
  -14.1200   20.7300  -29.8800 C   0  0  0  0  0  0  0  0  0  0  0  0
  -13.6960   22.1660  -30.0980 C   0  0  0  0  0  0  0  0  0  0  0  0
  -14.5860   23.0970  -29.4190 N   0  0  0  0  0  0  0  0  0  0  0  0
  -14.9520   24.2890  -29.8870 C   0  0  0  0  0  3  0  0  0  0  0  0
  -14.5410   24.7190  -31.0770 N   0  0  0  0  0  0  0  0  0  0  0  0
  -15.7650   25.0470  -29.1660 N   0  0  0  0  0  0  0  0  0  0  0  0
  -10.4080   19.7080  -32.3100 N   0  0  0  0  0  0  0  0  0  0  0  0
   -9.0820   19.1110  -32.3770 C   0  0  2  0  0  0  0  0  0  0  0  0
   -8.7840   18.3800  -31.0740 C   0  0  0  0  0  0  0  0  0  0  0  0
   -9.0520   18.8960  -29.9850 O   0  0  0  0  0  0  0  0  0  0  0  0
   -8.0150   20.1830  -32.6240 C   0  0  0  0  0  0  0  0  0  0  0  0
   -6.6110   19.6090  -32.7870 C   0  0  0  0  0  0  0  0  0  0  0  0
   -5.5420   20.6630  -33.0340 C   0  0  0  0  0  0  0  0  0  0  0  0
   -4.6770   20.2630  -34.1440 N   0  0  0  0  0  0  0  0  0  0  0  0
   -4.8550   20.6300  -35.4090 C   0  0  0  0  0  3  0  0  0  0  0  0
   -4.0180   20.1990  -36.3460 N   0  0  0  0  0  0  0  0  0  0  0  0
   -5.8610   21.4290  -35.7460 N   0  0  0  0  0  0  0  0  0  0  0  0
   -8.2290   17.1820  -31.1770 N   0  0  0  0  0  0  0  0  0  0  0  0
   -7.8650   16.4450  -29.9780 C   0  0  2  0  0  0  0  0  0  0  0  0
   -6.8280   17.2500  -29.2090 C   0  0  0  0  0  0  0  0  0  0  0  0
   -5.9400   17.8480  -29.8100 O   0  0  0  0  0  0  0  0  0  0  0  0
   -7.3240   15.0710  -30.3390 C   0  0  0  0  0  0  0  0  0  0  0  0
   -8.3540   14.1890  -30.9950 C   0  0  0  0  0  0  0  0  0  0  0  0
   -7.9040   12.7460  -31.0540 C   0  0  0  0  0  0  0  0  0  0  0  0
   -6.6730   12.6030  -31.8220 N   0  0  0  0  0  0  0  0  0  0  0  0
   -6.6130   12.5700  -33.1510 C   0  0  0  0  0  3  0  0  0  0  0  0
   -7.7180   12.6750  -33.8790 N   0  0  0  0  0  0  0  0  0  0  0  0
   -5.4420   12.4410  -33.7570 N   0  0  0  0  0  0  0  0  0  0  0  0
   -6.9530   17.2740  -27.8850 N   0  0  0  0  0  0  0  0  0  0  0  0
   -6.0930   18.1100  -27.0450 C   0  0  2  0  0  0  0  0  0  0  0  0
   -4.6350   17.6610  -27.1180 C   0  0  0  0  0  0  0  0  0  0  0  0
   -4.3420   16.5280  -27.5050 O   0  5  0  0  0  0  0  0  0  0  0  0
   -6.5840   18.1030  -25.5900 C   0  0  0  0  0  0  0  0  0  0  0  0
   -5.5800   17.6430  -24.6970 O   0  0  0  0  0  0  0  0  0  0  0  0
   -3.7230   18.4230  -26.7910 O   0  0  0  0  0  0  0  0  0  0  0  0
  -19.7870   20.3907  -32.2777 H   0  0  0  0  0  0  0  0  0  0  0  0
  -18.9299   21.6067  -33.2843 H   0  0  0  0  0  0  0  0  0  0  0  0
  -18.4341   21.2669  -30.4256 H   0  0  0  0  0  0  0  0  0  0  0  0
  -17.5742   23.4602  -30.5563 H   0  0  0  0  0  0  0  0  0  0  0  0
  -17.9744   23.4495  -32.3074 H   0  0  0  0  0  0  0  0  0  0  0  0
  -16.7329   22.3226  -31.6630 H   0  0  0  0  0  0  0  0  0  0  0  0
  -20.7251   21.7651  -30.7112 H   0  0  0  0  0  0  0  0  0  0  0  0
  -20.2313   23.1519  -31.7405 H   0  0  0  0  0  0  0  0  0  0  0  0
  -19.8005   23.1294  -29.9968 H   0  0  0  0  0  0  0  0  0  0  0  0
  -16.0088   17.9675  -33.3640 H   0  0  0  0  0  0  0  0  0  0  0  0
  -15.3391   17.9710  -35.6107 H   0  0  0  0  0  0  0  0  0  0  0  0
  -15.0595   19.7454  -35.6126 H   0  0  0  0  0  0  0  0  0  0  0  0
  -17.5596   18.1833  -36.0786 H   0  0  0  0  0  0  0  0  0  0  0  0
  -16.9739   19.6950  -36.8522 H   0  0  0  0  0  0  0  0  0  0  0  0
  -17.8320   21.0300  -35.1824 H   0  0  0  0  0  0  0  0  0  0  0  0
  -18.9286   19.6299  -34.9297 H   0  0  0  0  0  0  0  0  0  0  0  0
  -13.9246   18.0811  -32.5514 H   0  0  0  0  0  0  0  0  0  0  0  0
  -12.6712   20.7500  -32.2141 H   0  0  0  0  0  0  0  0  0  0  0  0
  -12.1068   20.0444  -29.8206 H   0  0  0  0  0  0  0  0  0  0  0  0
  -13.3424   18.7535  -30.0038 H   0  0  0  0  0  0  0  0  0  0  0  0
  -14.3218   20.5751  -28.8098 H   0  0  0  0  0  0  0  0  0  0  0  0
  -15.0357   20.5357  -30.4577 H   0  0  0  0  0  0  0  0  0  0  0  0
  -13.7089   22.3822  -31.1765 H   0  0  0  0  0  0  0  0  0  0  0  0
  -12.6757   22.2998  -29.7093 H   0  0  0  0  0  0  0  0  0  0  0  0
  -14.9625   22.8110  -28.5039 H   0  0  0  0  0  0  0  0  0  0  0  0
  -14.8358   25.6443  -31.4202 H   0  0  0  0  0  0  0  0  0  0  0  0
  -13.9280   24.1266  -31.6551 H   0  0  0  0  0  0  0  0  0  0  0  0
  -16.0886   24.7226  -28.2435 H   0  0  0  0  0  0  0  0  0  0  0  0
  -16.0735   25.9606  -29.5280 H   0  0  0  0  0  0  0  0  0  0  0  0
  -10.5108   20.6919  -32.4565 H   0  0  0  0  0  0  0  0  0  0  0  0
   -9.0588   18.3895  -33.2070 H   0  0  0  0  0  0  0  0  0  0  0  0
   -8.0120   20.8762  -31.7700 H   0  0  0  0  0  0  0  0  0  0  0  0
   -8.2767   20.7317  -33.5408 H   0  0  0  0  0  0  0  0  0  0  0  0
   -6.6170   18.9146  -33.6400 H   0  0  0  0  0  0  0  0  0  0  0  0
   -6.3518   19.0605  -31.8694 H   0  0  0  0  0  0  0  0  0  0  0  0
   -4.9336   20.7819  -32.1253 H   0  0  0  0  0  0  0  0  0  0  0  0
   -6.0263   21.6198  -33.2788 H   0  0  0  0  0  0  0  0  0  0  0  0
   -3.8739   19.6545  -33.9302 H   0  0  0  0  0  0  0  0  0  0  0  0
   -4.1535   20.4818  -37.3271 H   0  0  0  0  0  0  0  0  0  0  0  0
   -3.2335   19.5820  -36.0915 H   0  0  0  0  0  0  0  0  0  0  0  0
   -6.5140   21.7671  -35.0248 H   0  0  0  0  0  0  0  0  0  0  0  0
   -5.9882   21.7105  -36.7286 H   0  0  0  0  0  0  0  0  0  0  0  0
   -8.0604   16.7846  -32.0790 H   0  0  0  0  0  0  0  0  0  0  0  0
   -8.7584   16.3171  -29.3492 H   0  0  0  0  0  0  0  0  0  0  0  0
   -6.9748   14.5786  -29.4194 H   0  0  0  0  0  0  0  0  0  0  0  0
   -6.4784   15.1975  -31.0310 H   0  0  0  0  0  0  0  0  0  0  0  0
   -8.5302   14.5489  -32.0194 H   0  0  0  0  0  0  0  0  0  0  0  0
   -9.2900   14.2466  -30.4200 H   0  0  0  0  0  0  0  0  0  0  0  0
   -8.6933   12.1442  -31.5280 H   0  0  0  0  0  0  0  0  0  0  0  0
   -7.7311   12.3830  -30.0301 H   0  0  0  0  0  0  0  0  0  0  0  0
   -5.7888   12.5219  -31.2999 H   0  0  0  0  0  0  0  0  0  0  0  0
   -7.6618   12.6484  -34.9071 H   0  0  0  0  0  0  0  0  0  0  0  0
   -8.6316   12.7831  -33.4158 H   0  0  0  0  0  0  0  0  0  0  0  0
   -4.5799   12.3589  -33.1994 H   0  0  0  0  0  0  0  0  0  0  0  0
   -5.3937   12.4228  -34.7857 H   0  0  0  0  0  0  0  0  0  0  0  0
   -7.6528   16.7061  -27.4518 H   0  0  0  0  0  0  0  0  0  0  0  0
   -6.1505   19.1420  -27.4214 H   0  0  0  0  0  0  0  0  0  0  0  0
   -7.4594   17.4415  -25.5128 H   0  0  0  0  0  0  0  0  0  0  0  0
   -6.8713   19.1262  -25.3062 H   0  0  0  0  0  0  0  0  0  0  0  0
   -5.9187   17.6524  -23.8095 H   0  0  0  0  0  0  0  0  0  0  0  0
  1  2  2  0  0  0  0
  2  3  1  0  0  0  0
  2  7  1  0  0  0  0
  3  4  1  0  0  0  0
  3 54  1  0  0  0  0
  3 55  1  0  0  0  0
  4  5  1  0  0  0  0
  4  6  1  0  0  0  0
  4 56  1  0  0  0  0
  5 57  1  0  0  0  0
  5 58  1  0  0  0  0
  5 59  1  0  0  0  0
  6 60  1  0  0  0  0
  6 61  1  0  0  0  0
  6 62  1  0  0  0  0
  7  8  1  0  0  0  0
  7 13  1  0  0  0  0
  8  9  1  0  0  0  0
  8 11  1  0  0  0  0
  8 63  1  1  0  0  0
  9 10  2  0  0  0  0
  9 14  1  0  0  0  0
 11 12  1  0  0  0  0
 11 64  1  0  0  0  0
 11 65  1  0  0  0  0
 12 13  1  0  0  0  0
 12 66  1  0  0  0  0
 12 67  1  0  0  0  0
 13 68  1  0  0  0  0
 13 69  1  0  0  0  0
 14 15  1  0  0  0  0
 14 70  1  0  0  0  0
 15 16  1  0  0  0  0
 15 18  1  0  0  0  0
 15 71  1  6  0  0  0
 16 17  2  0  0  0  0
 16 25  1  0  0  0  0
 18 19  1  0  0  0  0
 18 72  1  0  0  0  0
 18 73  1  0  0  0  0
 19 20  1  0  0  0  0
 19 74  1  0  0  0  0
 19 75  1  0  0  0  0
 20 21  1  0  0  0  0
 20 76  1  0  0  0  0
 20 77  1  0  0  0  0
 21 22  1  0  0  0  0
 21 78  1  0  0  0  0
 22 23  1  0  0  0  0
 22 24  1  0  0  0  0
 23 79  1  0  0  0  0
 23 80  1  0  0  0  0
 24 81  1  0  0  0  0
 24 82  1  0  0  0  0
 25 26  1  0  0  0  0
 25 83  1  0  0  0  0
 26 27  1  0  0  0  0
 26 29  1  0  0  0  0
 26 84  1  6  0  0  0
 27 28  2  0  0  0  0
 27 36  1  0  0  0  0
 29 30  1  0  0  0  0
 29 85  1  0  0  0  0
 29 86  1  0  0  0  0
 30 31  1  0  0  0  0
 30 87  1  0  0  0  0
 30 88  1  0  0  0  0
 31 32  1  0  0  0  0
 31 89  1  0  0  0  0
 31 90  1  0  0  0  0
 32 33  1  0  0  0  0
 32 91  1  0  0  0  0
 33 34  1  0  0  0  0
 33 35  1  0  0  0  0
 34 92  1  0  0  0  0
 34 93  1  0  0  0  0
 35 94  1  0  0  0  0
 35 95  1  0  0  0  0
 36 37  1  0  0  0  0
 36 96  1  0  0  0  0
 37 38  1  0  0  0  0
 37 40  1  0  0  0  0
 37 97  1  1  0  0  0
 38 39  2  0  0  0  0
 38 47  1  0  0  0  0
 40 41  1  0  0  0  0
 40 98  1  0  0  0  0
 40 99  1  0  0  0  0
 41 42  1  0  0  0  0
 41100  1  0  0  0  0
 41101  1  0  0  0  0
 42 43  1  0  0  0  0
 42102  1  0  0  0  0
 42103  1  0  0  0  0
 43 44  1  0  0  0  0
 43104  1  0  0  0  0
 44 45  1  0  0  0  0
 44 46  1  0  0  0  0
 45105  1  0  0  0  0
 45106  1  0  0  0  0
 46107  1  0  0  0  0
 46108  1  0  0  0  0
 47 48  1  0  0  0  0
 47109  1  0  0  0  0
 48 49  1  0  0  0  0
 48 51  1  0  0  0  0
 48110  1  6  0  0  0
 49 50  1  0  0  0  0
 49 53  2  0  0  0  0
 51 52  1  0  0  0  0
 51111  1  0  0  0  0
 51112  1  0  0  0  0
 52113  1  0  0  0  0
M  CHG  2   4   1  50  -1
M  END
