5cyi_ligand
 OpenBabel08222323353D

 54 57  0  0  0  0  0  0  0  0999 V2000
    5.9130   41.7830   47.7410 C   0  0  0  0  0  0  0  0  0  0  0  0
    1.6370   46.1440   53.9050 C   0  0  0  0  0  0  0  0  0  0  0  0
    6.3110   42.3450   48.9570 C   0  0  0  0  0  0  0  0  0  0  0  0
    7.8590   44.0730   49.9210 C   0  0  0  0  0  0  0  0  0  0  0  0
    4.8560   46.1260   51.7890 C   0  0  0  0  0  0  0  0  0  0  0  0
    9.4660   45.2760   50.9330 C   0  0  0  0  0  0  0  0  0  0  0  0
   10.4420   46.7330   52.1720 C   0  0  0  0  0  0  0  0  0  0  0  0
    8.5330   45.9960   51.6580 C   0  0  0  0  0  0  0  0  0  0  0  0
    7.1990   45.6690   51.4470 C   0  0  0  0  0  0  0  0  0  0  0  0
    3.9810   46.4140   52.9730 C   0  0  0  0  0  0  0  0  0  0  0  0
    2.5510   45.9350   52.6960 C   0  0  0  0  0  0  0  0  0  0  0  0
    9.1760   44.2910   50.0760 N   0  0  0  0  0  0  0  0  0  0  0  0
   10.6670   45.7460   51.2890 N   0  0  0  0  0  0  0  0  0  0  0  0
    4.7270   41.0750   47.6590 C   0  0  0  0  0  0  0  0  0  0  0  0
    9.1590   46.8890   52.4300 N   0  0  0  0  0  0  0  0  0  0  0  0
    2.3240   39.1970   49.8850 O   0  0  0  0  0  0  0  0  0  0  0  0
    2.4270   39.9970   48.6930 S   0  0  0  0  0  0  0  0  0  0  0  0
    2.3800   39.3340   47.4160 O   0  0  0  0  0  0  0  0  0  0  0  0
    1.1510   41.2390   48.7380 C   0  0  0  0  0  0  0  0  0  0  0  0
   -0.0290   40.9730   49.6310 C   0  0  0  0  0  0  0  0  0  0  0  0
    3.9310   40.9280   48.7840 C   0  0  0  0  0  0  0  0  0  0  0  0
    4.3180   41.4790   49.9950 C   0  0  0  0  0  0  0  0  0  0  0  0
    5.4990   42.1850   50.0860 C   0  0  0  0  0  0  0  0  0  0  0  0
    7.5410   43.0990   49.0590 N   0  0  0  0  0  0  0  0  0  0  0  0
    6.8770   44.7260   50.5720 N   0  0  0  0  0  0  0  0  0  0  0  0
    6.2350   46.3860   52.1350 O   0  0  0  0  0  0  0  0  0  0  0  0
    4.5320   45.7720   54.2440 C   0  0  0  0  0  0  0  0  0  0  0  0
    3.6120   46.0000   55.4340 C   0  0  0  0  0  0  0  0  0  0  0  0
    2.2080   45.4880   55.1440 C   0  0  0  0  0  0  0  0  0  0  0  0
    6.5343   41.9019   46.8607 H   0  0  0  0  0  0  0  0  0  0  0  0
    0.6512   45.7061   53.6893 H   0  0  0  0  0  0  0  0  0  0  0  0
    1.5267   47.2229   54.0890 H   0  0  0  0  0  0  0  0  0  0  0  0
    4.5607   46.7718   50.9490 H   0  0  0  0  0  0  0  0  0  0  0  0
    4.7436   45.0712   51.4978 H   0  0  0  0  0  0  0  0  0  0  0  0
   11.2294   47.3352   52.6229 H   0  0  0  0  0  0  0  0  0  0  0  0
    3.9571   47.5032   53.1252 H   0  0  0  0  0  0  0  0  0  0  0  0
    2.1462   46.4980   51.8421 H   0  0  0  0  0  0  0  0  0  0  0  0
    2.5761   44.8632   52.4498 H   0  0  0  0  0  0  0  0  0  0  0  0
    4.4209   40.6360   46.7163 H   0  0  0  0  0  0  0  0  0  0  0  0
    8.7303   47.5568   53.0866 H   0  0  0  0  0  0  0  0  0  0  0  0
    0.7706   41.3613   47.7131 H   0  0  0  0  0  0  0  0  0  0  0  0
    1.6145   42.1791   49.0718 H   0  0  0  0  0  0  0  0  0  0  0  0
   -0.7359   41.8131   49.5644 H   0  0  0  0  0  0  0  0  0  0  0  0
    0.3147   40.8645   50.6703 H   0  0  0  0  0  0  0  0  0  0  0  0
   -0.5291   40.0468   49.3116 H   0  0  0  0  0  0  0  0  0  0  0  0
    3.6921   41.3550   50.8713 H   0  0  0  0  0  0  0  0  0  0  0  0
    5.7992   42.6170   51.0338 H   0  0  0  0  0  0  0  0  0  0  0  0
    8.2716   42.8534   48.3757 H   0  0  0  0  0  0  0  0  0  0  0  0
    5.5168   46.2089   54.4660 H   0  0  0  0  0  0  0  0  0  0  0  0
    4.6397   44.6898   54.0789 H   0  0  0  0  0  0  0  0  0  0  0  0
    3.5643   47.0774   55.6507 H   0  0  0  0  0  0  0  0  0  0  0  0
    4.0156   45.4677   56.3079 H   0  0  0  0  0  0  0  0  0  0  0  0
    2.2467   44.3996   54.9895 H   0  0  0  0  0  0  0  0  0  0  0  0
    1.5583   45.7136   56.0025 H   0  0  0  0  0  0  0  0  0  0  0  0
  1  3  2  0  0  0  0
  1 30  1  0  0  0  0
  2 29  1  0  0  0  0
  2 31  1  0  0  0  0
  2 32  1  0  0  0  0
  3 23  1  0  0  0  0
  3 24  1  0  0  0  0
  4 12  2  0  0  0  0
  4 25  1  0  0  0  0
  5 10  1  0  0  0  0
  5 33  1  0  0  0  0
  5 34  1  0  0  0  0
  6  8  2  0  0  0  0
  6 13  1  0  0  0  0
  7 35  1  0  0  0  0
  8 15  1  0  0  0  0
  9  8  1  0  0  0  0
  9 26  1  0  0  0  0
 10 11  1  0  0  0  0
 10 27  1  0  0  0  0
 10 36  1  0  0  0  0
 11  2  1  0  0  0  0
 11 37  1  0  0  0  0
 11 38  1  0  0  0  0
 12  6  1  0  0  0  0
 13  7  2  0  0  0  0
 14  1  1  0  0  0  0
 14 39  1  0  0  0  0
 15  7  1  0  0  0  0
 15 40  1  0  0  0  0
 17 16  2  0  0  0  0
 17 18  2  0  0  0  0
 17 19  1  0  0  0  0
 17 21  1  0  0  0  0
 19 20  1  0  0  0  0
 19 41  1  0  0  0  0
 19 42  1  0  0  0  0
 20 43  1  0  0  0  0
 20 44  1  0  0  0  0
 20 45  1  0  0  0  0
 21 14  2  0  0  0  0
 21 22  1  0  0  0  0
 22 23  2  0  0  0  0
 22 46  1  0  0  0  0
 23 47  1  0  0  0  0
 24  4  1  0  0  0  0
 24 48  1  0  0  0  0
 25  9  2  0  0  0  0
 26  5  1  0  0  0  0
 27 28  1  0  0  0  0
 27 49  1  0  0  0  0
 27 50  1  0  0  0  0
 28 29  1  0  0  0  0
 28 51  1  0  0  0  0
 28 52  1  0  0  0  0
 29 53  1  0  0  0  0
 29 54  1  0  0  0  0
M  END
