5d12_ligand
 OpenBabel08222323353D

 43 46  0  0  0  0  0  0  0  0999 V2000
   -6.2560   38.6040   -2.8200 C   0  0  0  0  0  0  0  0  0  0  0  0
   -4.9260   39.0210   -2.9230 C   0  0  0  0  0  0  0  0  0  0  0  0
   -4.6030   40.3760   -2.9750 C   0  0  0  0  0  0  0  0  0  0  0  0
   -5.6190   41.3150   -2.9260 C   0  0  0  0  0  0  0  0  0  0  0  0
   -6.9490   40.9060   -2.8290 C   0  0  0  0  0  0  0  0  0  0  0  0
   -7.2690   39.5490   -2.7820 C   0  0  0  0  0  0  0  0  0  0  0  0
   -8.6930   39.1450   -2.6790 C   0  0  0  0  0  0  0  0  0  0  0  0
   -9.1650   38.0410   -3.2950 N   0  0  0  0  0  0  0  0  0  0  0  0
   -9.5050   39.9310   -1.9620 N   0  0  0  0  0  0  0  0  0  0  0  0
  -10.8000   39.6430   -1.8280 C   0  0  0  0  0  0  0  0  0  0  0  0
  -11.5430   40.4960   -1.0650 C   0  0  0  0  0  0  0  0  0  0  0  0
  -12.8870   40.2810   -0.8760 C   0  0  0  0  0  0  0  0  0  0  0  0
  -13.4080   41.2190   -0.0610 N   0  0  0  0  0  0  0  0  0  0  0  0
  -14.5610   41.1690    0.6050 C   0  0  0  0  0  0  0  0  0  0  0  0
  -15.4210   40.3030    0.4420 O   0  0  0  0  0  0  0  0  0  0  0  0
  -14.7160   42.2550    1.6230 C   0  0  0  0  0  0  0  0  0  0  0  0
  -15.7780   42.3690    2.4070 C   0  0  0  0  0  0  0  0  0  0  0  0
  -13.5100   39.1540   -1.4480 C   0  0  0  0  0  0  0  0  0  0  0  0
  -12.7740   38.2450   -2.2470 C   0  0  0  0  0  0  0  0  0  0  0  0
  -11.4050   38.4490   -2.4620 C   0  0  0  0  0  0  0  0  0  0  0  0
  -10.4500   37.6150   -3.2620 C   0  0  0  0  0  0  0  0  0  0  0  0
  -10.7550   36.4910   -3.9710 N   0  0  0  0  0  0  0  0  0  0  0  0
   -9.7650   35.8530   -4.6650 C   0  0  0  0  0  0  0  0  0  0  0  0
   -8.4490   36.2020   -4.9720 C   0  0  0  0  0  0  0  0  0  0  0  0
   -7.8640   35.1340   -5.5970 C   0  0  0  0  0  0  0  0  0  0  0  0
   -8.8090   34.1750   -5.6600 N   0  0  0  0  0  0  0  0  0  0  0  0
  -10.0180   34.5900   -5.0730 N   0  0  0  0  0  0  0  0  0  0  0  0
   -6.4938   37.5476   -2.7701 H   0  0  0  0  0  0  0  0  0  0  0  0
   -4.1351   38.2808   -2.9630 H   0  0  0  0  0  0  0  0  0  0  0  0
   -3.5686   40.6907   -3.0529 H   0  0  0  0  0  0  0  0  0  0  0  0
   -5.3802   42.3717   -2.9631 H   0  0  0  0  0  0  0  0  0  0  0  0
   -7.7389   41.6473   -2.7899 H   0  0  0  0  0  0  0  0  0  0  0  0
  -11.0675   41.3533   -0.6025 H   0  0  0  0  0  0  0  0  0  0  0  0
  -12.8655   42.0506    0.0581 H   0  0  0  0  0  0  0  0  0  0  0  0
  -13.9166   42.9876    1.7244 H   0  0  0  0  0  0  0  0  0  0  0  0
  -15.8360   43.1808    3.1305 H   0  0  0  0  0  0  0  0  0  0  0  0
  -16.5928   41.6509    2.3278 H   0  0  0  0  0  0  0  0  0  0  0  0
  -14.5658   38.9804   -1.2744 H   0  0  0  0  0  0  0  0  0  0  0  0
  -13.2707   37.3907   -2.6925 H   0  0  0  0  0  0  0  0  0  0  0  0
  -11.7186   36.1274   -3.9835 H   0  0  0  0  0  0  0  0  0  0  0  0
   -7.9717   37.1560   -4.7529 H   0  0  0  0  0  0  0  0  0  0  0  0
   -6.8421   35.0717   -5.9682 H   0  0  0  0  0  0  0  0  0  0  0  0
  -10.8930   34.0553   -4.9766 H   0  0  0  0  0  0  0  0  0  0  0  0
  1  2  2  0  0  0  0
  1  6  1  0  0  0  0
  1 28  1  0  0  0  0
  2  3  1  0  0  0  0
  2 29  1  0  0  0  0
  3  4  2  0  0  0  0
  3 30  1  0  0  0  0
  4  5  1  0  0  0  0
  4 31  1  0  0  0  0
  5  6  2  0  0  0  0
  5 32  1  0  0  0  0
  6  7  1  0  0  0  0
  7  8  2  0  0  0  0
  7  9  1  0  0  0  0
  8 21  1  0  0  0  0
  9 10  2  0  0  0  0
 10 11  1  0  0  0  0
 10 20  1  0  0  0  0
 11 12  2  0  0  0  0
 11 33  1  0  0  0  0
 12 13  1  0  0  0  0
 12 18  1  0  0  0  0
 13 14  1  0  0  0  0
 13 34  1  0  0  0  0
 14 15  2  0  0  0  0
 14 16  1  0  0  0  0
 16 17  2  0  0  0  0
 16 35  1  0  0  0  0
 17 36  1  0  0  0  0
 17 37  1  0  0  0  0
 18 19  2  0  0  0  0
 18 38  1  0  0  0  0
 19 20  1  0  0  0  0
 19 39  1  0  0  0  0
 20 21  2  0  0  0  0
 21 22  1  0  0  0  0
 22 23  1  0  0  0  0
 22 40  1  0  0  0  0
 23 24  2  0  0  0  0
 23 27  1  0  0  0  0
 24 25  1  0  0  0  0
 24 41  1  0  0  0  0
 25 26  2  0  0  0  0
 25 42  1  0  0  0  0
 26 27  1  0  0  0  0
 27 43  1  0  0  0  0
M  END
