5d1s_ligand
 OpenBabel08222323353D

 34 34  0  0  1  0  0  0  0  0999 V2000
   11.7940   18.8150   26.5780 C   0  0  2  0  0  0  0  0  0  0  0  0
   12.5830   18.9060   27.8900 C   0  0  0  0  0  0  0  0  0  0  0  0
   14.2890   20.2710   28.9340 O   0  0  0  0  0  0  0  0  0  0  0  0
   10.2970   18.8840   26.5350 N   0  0  0  0  0  0  0  0  0  0  0  0
    9.2170   20.8300   27.8560 C   0  0  0  0  0  0  0  0  0  0  0  0
    8.1740   20.3590   28.6740 C   0  0  0  0  0  0  0  0  0  0  0  0
    7.9830   20.9050   29.9490 C   0  0  0  0  0  0  0  0  0  0  0  0
    8.8350   21.9060   30.3910 C   0  0  0  0  0  0  0  0  0  0  0  0
    9.8680   22.3810   29.5890 C   0  0  0  0  0  0  0  0  0  0  0  0
   10.0570   21.8410   28.3230 C   0  0  0  0  0  0  0  0  0  0  0  0
    9.5680   17.6180   26.6050 C   0  0  0  0  0  0  0  0  0  0  0  0
   12.3020   17.5590   25.8640 C   0  0  0  0  0  0  0  0  0  0  0  0
   13.4320   19.9330   27.8980 N   0  0  0  0  0  0  0  0  0  0  0  0
   12.5090   18.1110   28.8310 O   0  0  0  0  0  0  0  0  0  0  0  0
    9.4640   20.2080   26.3860 S   0  0  0  0  0  0  0  0  0  0  0  0
    8.1600   20.0470   25.7780 O   0  0  0  0  0  0  0  0  0  0  0  0
   10.2030   21.1460   25.5830 O   0  0  0  0  0  0  0  0  0  0  0  0
    8.6570   22.4370   31.6070 F   0  0  0  0  0  0  0  0  0  0  0  0
    6.8690   20.4170   30.8580 C   0  0  0  0  0  0  0  0  0  0  0  0
   12.1207   19.6837   25.9876 H   0  0  0  0  0  0  0  0  0  0  0  0
   14.7880   21.0423   28.6919 H   0  0  0  0  0  0  0  0  0  0  0  0
    7.5181   19.5732   28.3171 H   0  0  0  0  0  0  0  0  0  0  0  0
   10.5211   23.1674   29.9497 H   0  0  0  0  0  0  0  0  0  0  0  0
   10.8612   22.2071   27.6950 H   0  0  0  0  0  0  0  0  0  0  0  0
   10.2830   16.7884   26.7075 H   0  0  0  0  0  0  0  0  0  0  0  0
    8.9789   17.4828   25.6860 H   0  0  0  0  0  0  0  0  0  0  0  0
    8.8939   17.6306   27.4742 H   0  0  0  0  0  0  0  0  0  0  0  0
   13.4007   17.5308   25.9089 H   0  0  0  0  0  0  0  0  0  0  0  0
   11.9784   17.5785   24.8129 H   0  0  0  0  0  0  0  0  0  0  0  0
   11.8919   16.6655   26.3574 H   0  0  0  0  0  0  0  0  0  0  0  0
   13.4529   20.5122   27.0831 H   0  0  0  0  0  0  0  0  0  0  0  0
    6.2981   19.6277   30.3470 H   0  0  0  0  0  0  0  0  0  0  0  0
    6.1994   21.2555   31.1001 H   0  0  0  0  0  0  0  0  0  0  0  0
    7.3023   20.0142   31.7853 H   0  0  0  0  0  0  0  0  0  0  0  0
  1  2  1  0  0  0  0
  1 12  1  0  0  0  0
  1 20  1  6  0  0  0
  2 13  1  0  0  0  0
  2 14  2  0  0  0  0
  3 21  1  0  0  0  0
  4  1  1  0  0  0  0
  4 11  1  0  0  0  0
  5  6  2  0  0  0  0
  5 10  1  0  0  0  0
  5 15  1  0  0  0  0
  6  7  1  0  0  0  0
  6 22  1  0  0  0  0
  7  8  2  0  0  0  0
  7 19  1  0  0  0  0
  8  9  1  0  0  0  0
  8 18  1  0  0  0  0
  9 10  2  0  0  0  0
  9 23  1  0  0  0  0
 10 24  1  0  0  0  0
 11 25  1  0  0  0  0
 11 26  1  0  0  0  0
 11 27  1  0  0  0  0
 12 28  1  0  0  0  0
 12 29  1  0  0  0  0
 12 30  1  0  0  0  0
 13  3  1  0  0  0  0
 13 31  1  0  0  0  0
 15  4  1  0  0  0  0
 15 16  2  0  0  0  0
 15 17  2  0  0  0  0
 19 32  1  0  0  0  0
 19 33  1  0  0  0  0
 19 34  1  0  0  0  0
M  END
