5d1w_ligand
 OpenBabel08222323353D

 49 48  0  0  0  0  0  0  0  0999 V2000
   44.2240  -38.3840   15.9140 C   0  0  0  0  0  0  0  0  0  0  0  0
   44.0300  -38.1860   17.1560 O   0  5  0  0  0  0  0  0  0  0  0  0
   43.7900  -39.4750   15.3980 O   0  0  0  0  0  0  0  0  0  0  0  0
   44.9660  -37.3400   15.0940 C   0  0  0  0  0  0  0  0  0  0  0  0
   44.2160  -36.2790   14.3470 C   0  0  0  0  0  0  0  0  0  0  0  0
   45.0120  -35.4060   13.4410 C   0  0  0  0  0  0  0  0  0  0  0  0
   44.7780  -35.5270   11.9790 C   0  0  0  0  0  0  0  0  0  0  0  0
   45.2680  -34.4140   11.1260 C   0  0  0  0  0  0  0  0  0  0  0  0
   44.5620  -34.1690    9.8330 C   0  0  0  0  0  0  0  0  0  0  0  0
   45.2150  -33.2090    8.8990 C   0  0  0  0  0  0  0  0  0  0  0  0
   44.4590  -32.0730    8.3050 C   0  0  0  0  0  0  0  0  0  0  0  0
   45.2300  -31.0440    7.5480 C   0  0  0  0  0  0  0  0  0  0  0  0
   44.7150  -29.6560    7.6540 C   0  0  0  0  0  0  0  0  0  0  0  0
   45.3220  -28.5660    6.8310 C   0  0  0  0  0  0  0  0  0  0  0  0
   44.5810  -27.2600    6.7560 C   0  0  0  0  0  0  0  0  0  0  0  0
   45.0910  -26.0770    5.9740 C   0  0  0  0  0  0  0  0  0  0  0  0
   44.2310  -24.8240    5.9230 C   0  0  0  0  0  0  0  0  0  0  0  0
   44.2220  -23.9330    4.7020 C   0  0  0  0  0  0  0  0  0  0  0  0
   45.5591  -37.8896   14.3482 H   0  0  0  0  0  0  0  0  0  0  0  0
   45.6417  -36.8179   15.7874 H   0  0  0  0  0  0  0  0  0  0  0  0
   43.7282  -35.6307   15.0898 H   0  0  0  0  0  0  0  0  0  0  0  0
   43.4494  -36.7799   13.7376 H   0  0  0  0  0  0  0  0  0  0  0  0
   46.0742  -35.6270   13.6224 H   0  0  0  0  0  0  0  0  0  0  0  0
   44.8013  -34.3635   13.7216 H   0  0  0  0  0  0  0  0  0  0  0  0
   43.6927  -35.6130   11.8221 H   0  0  0  0  0  0  0  0  0  0  0  0
   45.2719  -36.4490   11.6385 H   0  0  0  0  0  0  0  0  0  0  0  0
   46.3226  -34.6198   10.8908 H   0  0  0  0  0  0  0  0  0  0  0  0
   45.1981  -33.4901   11.7189 H   0  0  0  0  0  0  0  0  0  0  0  0
   43.5594  -33.7812   10.0662 H   0  0  0  0  0  0  0  0  0  0  0  0
   44.4701  -35.1337    9.3126 H   0  0  0  0  0  0  0  0  0  0  0  0
   45.5953  -33.8046    8.0560 H   0  0  0  0  0  0  0  0  0  0  0  0
   46.0605  -32.7676    9.4470 H   0  0  0  0  0  0  0  0  0  0  0  0
   43.9428  -31.5566    9.1277 H   0  0  0  0  0  0  0  0  0  0  0  0
   43.7153  -32.4988    7.6153 H   0  0  0  0  0  0  0  0  0  0  0  0
   45.2226  -31.3283    6.4854 H   0  0  0  0  0  0  0  0  0  0  0  0
   46.2643  -31.0515    7.9225 H   0  0  0  0  0  0  0  0  0  0  0  0
   44.8246  -29.3567    8.7068 H   0  0  0  0  0  0  0  0  0  0  0  0
   43.6472  -29.6933    7.3927 H   0  0  0  0  0  0  0  0  0  0  0  0
   45.4245  -28.9464    5.8040 H   0  0  0  0  0  0  0  0  0  0  0  0
   46.3190  -28.3560    7.2455 H   0  0  0  0  0  0  0  0  0  0  0  0
   44.4696  -26.9133    7.7940 H   0  0  0  0  0  0  0  0  0  0  0  0
   43.5905  -27.4956    6.3397 H   0  0  0  0  0  0  0  0  0  0  0  0
   45.2411  -26.4118    4.9370 H   0  0  0  0  0  0  0  0  0  0  0  0
   46.0591  -25.7904    6.4106 H   0  0  0  0  0  0  0  0  0  0  0  0
   44.5470  -24.1937    6.7673 H   0  0  0  0  0  0  0  0  0  0  0  0
   43.1924  -25.1514    6.0784 H   0  0  0  0  0  0  0  0  0  0  0  0
   43.5387  -23.0875    4.8701 H   0  0  0  0  0  0  0  0  0  0  0  0
   43.8831  -24.5104    3.8292 H   0  0  0  0  0  0  0  0  0  0  0  0
   45.2376  -23.5526    4.5181 H   0  0  0  0  0  0  0  0  0  0  0  0
  1  2  1  0  0  0  0
  1  3  2  0  0  0  0
  1  4  1  0  0  0  0
  4  5  1  0  0  0  0
  4 19  1  0  0  0  0
  4 20  1  0  0  0  0
  5  6  1  0  0  0  0
  5 21  1  0  0  0  0
  5 22  1  0  0  0  0
  6  7  1  0  0  0  0
  6 23  1  0  0  0  0
  6 24  1  0  0  0  0
  7  8  1  0  0  0  0
  7 25  1  0  0  0  0
  7 26  1  0  0  0  0
  8  9  1  0  0  0  0
  8 27  1  0  0  0  0
  8 28  1  0  0  0  0
  9 10  1  0  0  0  0
  9 29  1  0  0  0  0
  9 30  1  0  0  0  0
 10 11  1  0  0  0  0
 10 31  1  0  0  0  0
 10 32  1  0  0  0  0
 11 12  1  0  0  0  0
 11 33  1  0  0  0  0
 11 34  1  0  0  0  0
 12 13  1  0  0  0  0
 12 35  1  0  0  0  0
 12 36  1  0  0  0  0
 13 14  1  0  0  0  0
 13 37  1  0  0  0  0
 13 38  1  0  0  0  0
 14 15  1  0  0  0  0
 14 39  1  0  0  0  0
 14 40  1  0  0  0  0
 15 16  1  0  0  0  0
 15 41  1  0  0  0  0
 15 42  1  0  0  0  0
 16 17  1  0  0  0  0
 16 43  1  0  0  0  0
 16 44  1  0  0  0  0
 17 18  1  0  0  0  0
 17 45  1  0  0  0  0
 17 46  1  0  0  0  0
 18 47  1  0  0  0  0
 18 48  1  0  0  0  0
 18 49  1  0  0  0  0
M  CHG  1   2  -1
M  END
