5d9l_ligand
 OpenBabel08222323353D

 31 33  0  0  0  0  0  0  0  0999 V2000
   -1.5470   11.3340   27.6370 C   0  0  0  0  0  0  0  0  0  0  0  0
   -0.5350   10.4580   28.0250 C   0  0  0  0  0  0  0  0  0  0  0  0
   -2.7330   11.0800   26.7740 C   0  0  0  0  0  0  0  0  0  0  0  0
   -6.0880   10.3660   24.4160 O   0  0  0  0  0  0  0  0  0  0  0  0
   -0.0490    5.0010   26.8070 O   0  0  0  0  0  0  0  0  0  0  0  0
   -3.7460   10.0460   24.8370 C   0  0  0  0  0  0  0  0  0  0  0  0
    0.9940    7.1430   27.1030 C   0  0  0  0  0  0  0  0  0  0  0  0
   -1.3480    6.8210   27.5460 C   0  0  0  0  0  0  0  0  0  0  0  0
   -4.9740   10.6040   25.1740 C   0  0  0  0  0  0  0  0  0  0  0  0
   -0.1210    6.3130   27.1480 C   0  0  0  0  0  0  0  0  0  0  0  0
   -1.2430   12.5450   28.2810 C   0  0  0  0  0  0  0  0  0  0  0  0
   -0.3700    9.0130   27.7960 C   0  0  0  0  0  0  0  0  0  0  0  0
    0.3060   11.1520   28.8250 N   0  0  0  0  0  0  0  0  0  0  0  0
   -3.9690   11.6460   27.0880 C   0  0  0  0  0  0  0  0  0  0  0  0
   -2.6350   10.2860   25.6300 C   0  0  0  0  0  0  0  0  0  0  0  0
   -0.1300   12.4300   28.9970 N   0  0  0  0  0  0  0  0  0  0  0  0
    0.8710    8.4820   27.4340 C   0  0  0  0  0  0  0  0  0  0  0  0
   -1.4690    8.1610   27.8660 C   0  0  0  0  0  0  0  0  0  0  0  0
   -5.0830   11.4060   26.3020 C   0  0  0  0  0  0  0  0  0  0  0  0
   -6.8299   10.8243   24.7928 H   0  0  0  0  0  0  0  0  0  0  0  0
    0.2395    4.9247   25.9051 H   0  0  0  0  0  0  0  0  0  0  0  0
   -3.6575    9.4233   23.9541 H   0  0  0  0  0  0  0  0  0  0  0  0
    1.9576    6.7425   26.8094 H   0  0  0  0  0  0  0  0  0  0  0  0
   -2.2116    6.1686   27.6063 H   0  0  0  0  0  0  0  0  0  0  0  0
   -1.8383   13.4536   28.2038 H   0  0  0  0  0  0  0  0  0  0  0  0
   -4.0583   12.2832   27.9604 H   0  0  0  0  0  0  0  0  0  0  0  0
   -1.6792    9.8523   25.3589 H   0  0  0  0  0  0  0  0  0  0  0  0
    0.3147   13.1623   29.5687 H   0  0  0  0  0  0  0  0  0  0  0  0
    1.7445    9.1236   27.4121 H   0  0  0  0  0  0  0  0  0  0  0  0
   -2.4313    8.5528   28.1751 H   0  0  0  0  0  0  0  0  0  0  0  0
   -6.0388   11.8435   26.5668 H   0  0  0  0  0  0  0  0  0  0  0  0
  1  3  1  0  0  0  0
  1 11  2  0  0  0  0
  2  1  1  0  0  0  0
  2 13  2  0  0  0  0
  3 14  2  0  0  0  0
  3 15  1  0  0  0  0
  4 20  1  0  0  0  0
  5 21  1  0  0  0  0
  6  9  1  0  0  0  0
  6 22  1  0  0  0  0
  7 10  2  0  0  0  0
  7 23  1  0  0  0  0
  8 18  2  0  0  0  0
  8 24  1  0  0  0  0
  9  4  1  0  0  0  0
  9 19  2  0  0  0  0
 10  5  1  0  0  0  0
 10  8  1  0  0  0  0
 11 16  1  0  0  0  0
 11 25  1  0  0  0  0
 12  2  1  0  0  0  0
 12 17  2  0  0  0  0
 12 18  1  0  0  0  0
 13 16  1  0  0  0  0
 14 19  1  0  0  0  0
 14 26  1  0  0  0  0
 15  6  2  0  0  0  0
 15 27  1  0  0  0  0
 16 28  1  0  0  0  0
 17  7  1  0  0  0  0
 17 29  1  0  0  0  0
 18 30  1  0  0  0  0
 19 31  1  0  0  0  0
M  END
