5dah_ligand
 OpenBabel08222323353D

136135  0  0  1  0  0  0  0  0999 V2000
   -7.7500   31.1720   -7.8100 N   0  3  0  0  0  0  0  0  0  0  0  0
   -8.3290   29.9840   -8.4530 C   0  0  2  0  0  0  0  0  0  0  0  0
   -8.4830   28.8550   -7.4330 C   0  0  0  0  0  0  0  0  0  0  0  0
   -7.4980   28.4120   -6.8120 O   0  0  0  0  0  0  0  0  0  0  0  0
   -7.4750   29.5060   -9.6410 C   0  0  0  0  0  0  0  0  0  0  0  0
   -9.7230   28.4130   -7.2500 N   0  0  0  0  0  0  0  0  0  0  0  0
  -10.0140   27.3780   -6.2810 C   0  0  2  0  0  0  0  0  0  0  0  0
   -9.2690   26.0930   -6.6420 C   0  0  0  0  0  0  0  0  0  0  0  0
   -9.2700   25.6690   -7.8030 O   0  0  0  0  0  0  0  0  0  0  0  0
  -11.5050   27.1290   -6.2120 C   0  0  0  0  0  0  0  0  0  0  0  0
   -8.6390   25.4860   -5.6390 N   0  0  0  0  0  0  0  0  0  0  0  0
   -7.9100   24.2470   -5.8190 C   0  0  2  0  0  0  0  0  0  0  0  0
   -8.8650   23.0850   -5.9420 C   0  0  0  0  0  0  0  0  0  0  0  0
  -10.0430   23.2300   -5.6310 O   0  0  0  0  0  0  0  0  0  0  0  0
   -6.9560   23.9650   -4.6580 C   0  0  2  0  0  0  0  0  0  0  0  0
   -7.7100   23.6990   -3.4640 O   0  0  0  0  0  0  0  0  0  0  0  0
   -5.9940   25.1360   -4.4430 C   0  0  0  0  0  0  0  0  0  0  0  0
   -8.3460   21.9370   -6.3940 N   0  0  0  0  0  0  0  0  0  0  0  0
   -9.1010   20.6750   -6.4320 C   0  0  2  0  0  0  0  0  0  0  0  0
   -9.6500   20.3100   -5.0530 C   0  0  0  0  0  0  0  0  0  0  0  0
  -10.7670   19.7910   -4.9280 O   0  0  0  0  0  0  0  0  0  0  0  0
   -8.2280   19.5260   -6.9610 C   0  0  0  0  0  0  0  0  0  0  0  0
   -7.8130   19.6580   -8.4180 C   0  0  0  0  0  0  0  0  0  0  0  0
   -9.0210   19.5090   -9.3370 C   0  0  0  0  0  0  0  0  0  0  0  0
   -8.6220   19.6240  -10.7990 C   0  0  0  0  0  0  0  0  0  0  0  0
   -9.7900   19.5500  -11.7190 N   0  3  0  0  0  0  0  0  0  0  0  0
   -8.8590   20.5880   -4.0210 N   0  0  0  0  0  0  0  0  0  0  0  0
   -9.2460   20.2530   -2.6590 C   0  0  2  0  0  0  0  0  0  0  0  0
  -10.4400   21.1030   -2.2080 C   0  0  0  0  0  0  0  0  0  0  0  0
  -11.3630   20.6000   -1.5690 O   0  0  0  0  0  0  0  0  0  0  0  0
   -8.0840   20.4370   -1.7340 C   0  0  0  0  0  0  0  0  0  0  0  0
  -10.4350   22.3860   -2.5630 N   0  0  0  0  0  0  0  0  0  0  0  0
  -11.4980   23.2810   -2.1290 C   0  0  2  0  0  0  0  0  0  0  0  0
  -12.8280   22.9320   -2.7830 C   0  0  0  0  0  0  0  0  0  0  0  0
  -13.8920   23.3150   -2.2930 O   0  0  0  0  0  0  0  0  0  0  0  0
  -11.1320   24.7170   -2.4170 C   0  0  0  0  0  0  0  0  0  0  0  0
  -12.7690   22.1920   -3.8840 N   0  0  0  0  0  0  0  0  0  0  0  0
  -13.9700   21.8530   -4.6270 C   0  0  2  0  0  0  0  0  0  0  0  0
  -14.5380   20.5010   -4.1710 C   0  0  0  0  0  0  0  0  0  0  0  0
  -15.6960   20.1830   -4.4290 O   0  0  0  0  0  0  0  0  0  0  0  0
  -13.6680   21.8740   -6.1340 C   0  0  0  0  0  0  0  0  0  0  0  0
  -13.3480   23.2840   -6.6520 C   0  0  0  0  0  0  0  0  0  0  0  0
  -12.8870   23.3510   -8.1020 C   0  0  0  0  0  0  0  0  0  0  0  0
  -13.9820   23.1420   -9.0400 N   0  0  0  0  0  0  0  0  0  0  0  0
  -13.8270   22.6500  -10.2730 C   0  0  0  0  0  3  0  0  0  0  0  0
  -12.6130   22.3170  -10.7270 N   0  0  0  0  0  0  0  0  0  0  0  0
  -14.8880   22.5080  -11.0720 N   0  0  0  0  0  0  0  0  0  0  0  0
  -13.7450   19.7210   -3.4440 N   0  0  0  0  0  0  0  0  0  0  0  0
  -14.2040   18.3990   -3.0100 C   0  0  2  0  0  0  0  0  0  0  0  0
  -15.4330   18.4410   -2.1180 C   0  0  0  0  0  0  0  0  0  0  0  0
  -15.4840   19.1910   -1.1460 O   0  0  0  0  0  0  0  0  0  0  0  0
  -13.1060   17.6530   -2.2640 C   0  0  0  0  0  0  0  0  0  0  0  0
  -13.4840   16.2140   -1.9260 C   0  0  0  0  0  0  0  0  0  0  0  0
  -12.3780   15.4990   -1.1720 C   0  0  0  0  0  0  0  0  0  0  0  0
  -12.7610   14.0760   -0.8980 C   0  0  0  0  0  0  0  0  0  0  0  0
  -11.6560   13.3510   -0.2520 N   0  3  0  0  0  0  0  0  0  0  0  0
  -16.4020   17.5920   -2.4480 N   0  0  0  0  0  0  0  0  0  0  0  0
  -17.5810   17.3710   -1.6160 C   0  0  2  0  0  0  0  0  0  0  0  0
  -17.2540   16.5130   -0.3870 C   0  0  0  0  0  0  0  0  0  0  0  0
  -18.1320   16.1810    0.4160 O   0  5  0  0  0  0  0  0  0  0  0  0
  -18.6860   16.7020   -2.4400 C   0  0  0  0  0  0  0  0  0  0  0  0
  -19.0990   17.5380   -3.5110 O   0  0  0  0  0  0  0  0  0  0  0  0
  -16.1020   16.1270   -0.1620 O   0  0  0  0  0  0  0  0  0  0  0  0
   -7.6531   31.9089   -8.4909 H   0  0  0  0  0  0  0  0  0  0  0  0
   -6.8440   30.9420   -7.4327 H   0  0  0  0  0  0  0  0  0  0  0  0
   -8.3557   31.4800   -7.0655 H   0  0  0  0  0  0  0  0  0  0  0  0
   -9.3265   30.2509   -8.8321 H   0  0  0  0  0  0  0  0  0  0  0  0
   -7.9406   28.6181  -10.0935 H   0  0  0  0  0  0  0  0  0  0  0  0
   -6.4652   29.2505   -9.2874 H   0  0  0  0  0  0  0  0  0  0  0  0
   -7.4089   30.3078  -10.3912 H   0  0  0  0  0  0  0  0  0  0  0  0
  -10.4681   28.8024   -7.7914 H   0  0  0  0  0  0  0  0  0  0  0  0
   -9.6700   27.7158   -5.2923 H   0  0  0  0  0  0  0  0  0  0  0  0
  -11.7113   26.3411   -5.4726 H   0  0  0  0  0  0  0  0  0  0  0  0
  -11.8695   26.8096   -7.1995 H   0  0  0  0  0  0  0  0  0  0  0  0
  -12.0180   28.0552   -5.9137 H   0  0  0  0  0  0  0  0  0  0  0  0
   -8.6699   25.8997   -4.7291 H   0  0  0  0  0  0  0  0  0  0  0  0
   -7.3221   24.3259   -6.7453 H   0  0  0  0  0  0  0  0  0  0  0  0
   -6.3628   23.0717   -4.9030 H   0  0  0  0  0  0  0  0  0  0  0  0
   -7.1129   23.5245   -2.7460 H   0  0  0  0  0  0  0  0  0  0  0  0
   -5.3203   24.9077   -3.6040 H   0  0  0  0  0  0  0  0  0  0  0  0
   -6.5688   26.0456   -4.2146 H   0  0  0  0  0  0  0  0  0  0  0  0
   -5.4015   25.2962   -5.3558 H   0  0  0  0  0  0  0  0  0  0  0  0
   -7.4010   21.9372   -6.7211 H   0  0  0  0  0  0  0  0  0  0  0  0
   -9.9510   20.8080   -7.1174 H   0  0  0  0  0  0  0  0  0  0  0  0
   -8.7924   18.5884   -6.8498 H   0  0  0  0  0  0  0  0  0  0  0  0
   -7.3156   19.4797   -6.3484 H   0  0  0  0  0  0  0  0  0  0  0  0
   -7.0786   18.8747   -8.6569 H   0  0  0  0  0  0  0  0  0  0  0  0
   -7.3587   20.6472   -8.5761 H   0  0  0  0  0  0  0  0  0  0  0  0
   -9.7496   20.2987   -9.1016 H   0  0  0  0  0  0  0  0  0  0  0  0
   -9.4804   18.5240   -9.1677 H   0  0  0  0  0  0  0  0  0  0  0  0
   -7.9305   18.8035  -11.0410 H   0  0  0  0  0  0  0  0  0  0  0  0
   -8.1146   20.5881  -10.9509 H   0  0  0  0  0  0  0  0  0  0  0  0
   -9.4725   19.6309  -12.6723 H   0  0  0  0  0  0  0  0  0  0  0  0
  -10.4285   20.3022  -11.5126 H   0  0  0  0  0  0  0  0  0  0  0  0
  -10.2598   18.6668  -11.5952 H   0  0  0  0  0  0  0  0  0  0  0  0
   -7.9802   21.0365   -4.1843 H   0  0  0  0  0  0  0  0  0  0  0  0
   -9.5463   19.1951   -2.6334 H   0  0  0  0  0  0  0  0  0  0  0  0
   -8.3878   20.1811   -0.7082 H   0  0  0  0  0  0  0  0  0  0  0  0
   -7.7512   21.4849   -1.7672 H   0  0  0  0  0  0  0  0  0  0  0  0
   -7.2589   19.7802   -2.0466 H   0  0  0  0  0  0  0  0  0  0  0  0
   -9.6934   22.7386   -3.1337 H   0  0  0  0  0  0  0  0  0  0  0  0
  -11.6141   23.1674   -1.0411 H   0  0  0  0  0  0  0  0  0  0  0  0
  -11.9460   25.3770   -2.0826 H   0  0  0  0  0  0  0  0  0  0  0  0
  -10.9762   24.8459   -3.4982 H   0  0  0  0  0  0  0  0  0  0  0  0
  -10.2072   24.9745   -1.8799 H   0  0  0  0  0  0  0  0  0  0  0  0
  -11.8820   21.8623   -4.2073 H   0  0  0  0  0  0  0  0  0  0  0  0
  -14.7296   22.6217   -4.4218 H   0  0  0  0  0  0  0  0  0  0  0  0
  -14.5459   21.4908   -6.6747 H   0  0  0  0  0  0  0  0  0  0  0  0
  -12.8037   21.2223   -6.3294 H   0  0  0  0  0  0  0  0  0  0  0  0
  -12.5515   23.7059   -6.0215 H   0  0  0  0  0  0  0  0  0  0  0  0
  -14.2562   23.8970   -6.5547 H   0  0  0  0  0  0  0  0  0  0  0  0
  -12.1261   22.5741   -8.2677 H   0  0  0  0  0  0  0  0  0  0  0  0
  -12.4462   24.3415   -8.2878 H   0  0  0  0  0  0  0  0  0  0  0  0
  -14.9341   23.3886   -8.7341 H   0  0  0  0  0  0  0  0  0  0  0  0
  -12.5051   21.9387  -11.6789 H   0  0  0  0  0  0  0  0  0  0  0  0
  -11.7865   22.4390  -10.1245 H   0  0  0  0  0  0  0  0  0  0  0  0
  -15.8265   22.7616  -10.7318 H   0  0  0  0  0  0  0  0  0  0  0  0
  -14.7676   22.1450  -12.0284 H   0  0  0  0  0  0  0  0  0  0  0  0
  -12.8306   20.0378   -3.1919 H   0  0  0  0  0  0  0  0  0  0  0  0
  -14.4608   17.8279   -3.9144 H   0  0  0  0  0  0  0  0  0  0  0  0
  -12.8932   18.1884   -1.3270 H   0  0  0  0  0  0  0  0  0  0  0  0
  -12.2029   17.6395   -2.8919 H   0  0  0  0  0  0  0  0  0  0  0  0
  -13.6855   15.6705   -2.8609 H   0  0  0  0  0  0  0  0  0  0  0  0
  -14.3909   16.2216   -1.3035 H   0  0  0  0  0  0  0  0  0  0  0  0
  -12.1989   16.0154   -0.2174 H   0  0  0  0  0  0  0  0  0  0  0  0
  -11.4590   15.5161   -1.7762 H   0  0  0  0  0  0  0  0  0  0  0  0
  -13.0103   13.5806   -1.8480 H   0  0  0  0  0  0  0  0  0  0  0  0
  -13.6385   14.0603   -0.2349 H   0  0  0  0  0  0  0  0  0  0  0  0
  -11.9357   12.3984   -0.0776 H   0  0  0  0  0  0  0  0  0  0  0  0
  -11.4255   13.7986    0.6212 H   0  0  0  0  0  0  0  0  0  0  0  0
  -10.8497   13.3591   -0.8569 H   0  0  0  0  0  0  0  0  0  0  0  0
  -16.3193   17.0822   -3.3043 H   0  0  0  0  0  0  0  0  0  0  0  0
  -17.9456   18.3486   -1.2676 H   0  0  0  0  0  0  0  0  0  0  0  0
  -19.5487   16.5000   -1.7881 H   0  0  0  0  0  0  0  0  0  0  0  0
  -18.3059   15.7544   -2.8493 H   0  0  0  0  0  0  0  0  0  0  0  0
  -18.3578   17.7124   -4.0791 H   0  0  0  0  0  0  0  0  0  0  0  0
  1  2  1  0  0  0  0
  1 64  1  0  0  0  0
  1 65  1  0  0  0  0
  1 66  1  0  0  0  0
  2  3  1  0  0  0  0
  2  5  1  0  0  0  0
  2 67  1  6  0  0  0
  3  4  2  0  0  0  0
  3  6  1  0  0  0  0
  5 68  1  0  0  0  0
  5 69  1  0  0  0  0
  5 70  1  0  0  0  0
  6  7  1  0  0  0  0
  6 71  1  0  0  0  0
  7  8  1  0  0  0  0
  7 10  1  0  0  0  0
  7 72  1  1  0  0  0
  8  9  2  0  0  0  0
  8 11  1  0  0  0  0
 10 73  1  0  0  0  0
 10 74  1  0  0  0  0
 10 75  1  0  0  0  0
 11 12  1  0  0  0  0
 11 76  1  0  0  0  0
 12 13  1  0  0  0  0
 12 15  1  0  0  0  0
 12 77  1  6  0  0  0
 13 14  2  0  0  0  0
 13 18  1  0  0  0  0
 15 16  1  0  0  0  0
 15 17  1  0  0  0  0
 15 78  1  6  0  0  0
 16 79  1  0  0  0  0
 17 80  1  0  0  0  0
 17 81  1  0  0  0  0
 17 82  1  0  0  0  0
 18 19  1  0  0  0  0
 18 83  1  0  0  0  0
 19 20  1  0  0  0  0
 19 22  1  0  0  0  0
 19 84  1  6  0  0  0
 20 21  2  0  0  0  0
 20 27  1  0  0  0  0
 22 23  1  0  0  0  0
 22 85  1  0  0  0  0
 22 86  1  0  0  0  0
 23 24  1  0  0  0  0
 23 87  1  0  0  0  0
 23 88  1  0  0  0  0
 24 25  1  0  0  0  0
 24 89  1  0  0  0  0
 24 90  1  0  0  0  0
 25 26  1  0  0  0  0
 25 91  1  0  0  0  0
 25 92  1  0  0  0  0
 26 93  1  0  0  0  0
 26 94  1  0  0  0  0
 26 95  1  0  0  0  0
 27 28  1  0  0  0  0
 27 96  1  0  0  0  0
 28 29  1  0  0  0  0
 28 31  1  0  0  0  0
 28 97  1  1  0  0  0
 29 30  2  0  0  0  0
 29 32  1  0  0  0  0
 31 98  1  0  0  0  0
 31 99  1  0  0  0  0
 31100  1  0  0  0  0
 32 33  1  0  0  0  0
 32101  1  0  0  0  0
 33 34  1  0  0  0  0
 33 36  1  0  0  0  0
 33102  1  1  0  0  0
 34 35  2  0  0  0  0
 34 37  1  0  0  0  0
 36103  1  0  0  0  0
 36104  1  0  0  0  0
 36105  1  0  0  0  0
 37 38  1  0  0  0  0
 37106  1  0  0  0  0
 38 39  1  0  0  0  0
 38 41  1  0  0  0  0
 38107  1  1  0  0  0
 39 40  2  0  0  0  0
 39 48  1  0  0  0  0
 41 42  1  0  0  0  0
 41108  1  0  0  0  0
 41109  1  0  0  0  0
 42 43  1  0  0  0  0
 42110  1  0  0  0  0
 42111  1  0  0  0  0
 43 44  1  0  0  0  0
 43112  1  0  0  0  0
 43113  1  0  0  0  0
 44 45  1  0  0  0  0
 44114  1  0  0  0  0
 45 46  1  0  0  0  0
 45 47  1  0  0  0  0
 46115  1  0  0  0  0
 46116  1  0  0  0  0
 47117  1  0  0  0  0
 47118  1  0  0  0  0
 48 49  1  0  0  0  0
 48119  1  0  0  0  0
 49 50  1  0  0  0  0
 49 52  1  0  0  0  0
 49120  1  6  0  0  0
 50 51  2  0  0  0  0
 50 57  1  0  0  0  0
 52 53  1  0  0  0  0
 52121  1  0  0  0  0
 52122  1  0  0  0  0
 53 54  1  0  0  0  0
 53123  1  0  0  0  0
 53124  1  0  0  0  0
 54 55  1  0  0  0  0
 54125  1  0  0  0  0
 54126  1  0  0  0  0
 55 56  1  0  0  0  0
 55127  1  0  0  0  0
 55128  1  0  0  0  0
 56129  1  0  0  0  0
 56130  1  0  0  0  0
 56131  1  0  0  0  0
 57 58  1  0  0  0  0
 57132  1  0  0  0  0
 58 59  1  0  0  0  0
 58 61  1  0  0  0  0
 58133  1  1  0  0  0
 59 60  1  0  0  0  0
 59 63  2  0  0  0  0
 61 62  1  0  0  0  0
 61134  1  0  0  0  0
 61135  1  0  0  0  0
 62136  1  0  0  0  0
M  CHG  4   1   1  26   1  56   1  60  -1
M  END
