5ddd_ligand
 OpenBabel08222323353D

 48 51  0  0  0  0  0  0  0  0999 V2000
   13.1900    7.4520   12.2150 C   0  0  0  0  0  0  0  0  0  0  0  0
   13.3750    8.7680   11.9540 C   0  0  0  0  0  0  0  0  0  0  0  0
   12.2990    9.4800   11.4380 C   0  0  0  0  0  0  0  0  0  0  0  0
   11.1320    8.8540   11.2110 N   0  0  0  0  0  0  0  0  0  0  0  0
   12.0290    6.8390   12.0160 N   0  0  0  0  0  0  0  0  0  0  0  0
   17.6150    6.6850   11.8440 F   0  0  0  0  0  0  0  0  0  0  0  0
   17.8090    8.0020   11.9790 C   0  0  0  0  0  0  0  0  0  0  0  0
   16.9300    8.4480   13.1720 C   0  0  0  0  0  0  0  0  0  0  0  0
   15.4580    8.2200   12.7450 C   0  0  0  0  0  0  0  0  0  0  0  0
   14.5360    6.7780   12.8910 S   0  0  0  0  0  0  0  0  0  0  0  0
   14.6560    9.1660   12.2470 C   0  0  0  0  0  0  0  0  0  0  0  0
   10.9770    7.5210   11.4980 C   0  0  0  0  0  0  0  0  0  0  0  0
   12.2550   10.7980   11.1230 N   0  0  0  0  0  0  0  0  0  0  0  0
   11.0860   11.3100   10.3490 C   0  0  0  0  0  0  0  0  0  0  0  0
   11.1260   12.7840   10.1360 C   0  0  0  0  0  0  0  0  0  0  0  0
   13.1880   11.8490   11.7270 C   0  0  0  0  0  0  0  0  0  0  0  0
   12.2230   12.7520   12.5080 C   0  0  0  0  0  0  0  0  0  0  0  0
   11.3640   13.4340   11.5230 N   0  0  0  0  0  4  0  0  0  0  0  0
   10.7670   14.6020   11.8210 C   0  0  0  0  0  0  0  0  0  0  0  0
   10.8700   15.3580   13.3100 S   0  0  0  0  0  0  0  0  0  0  0  0
    9.9130   16.8010   12.9010 C   0  0  0  0  0  0  0  0  0  0  0  0
    8.8140   17.0670   13.9700 C   0  0  0  0  0  0  0  0  0  0  0  0
   10.8370   18.0210   12.7740 C   0  0  0  0  0  0  0  0  0  0  0  0
    9.3570   16.5830   11.5630 C   0  0  0  0  0  0  0  0  0  0  0  0
    9.9880   15.3160   10.9780 N   0  0  0  0  0  0  0  0  0  0  0  0
   17.5036    8.5283   11.0627 H   0  0  0  0  0  0  0  0  0  0  0  0
   18.8686    8.2120   12.1867 H   0  0  0  0  0  0  0  0  0  0  0  0
   17.1009    9.5120   13.3928 H   0  0  0  0  0  0  0  0  0  0  0  0
   17.1646    7.8464   14.0625 H   0  0  0  0  0  0  0  0  0  0  0  0
   14.9968   10.1874   12.0840 H   0  0  0  0  0  0  0  0  0  0  0  0
   10.0320    7.0226   11.3143 H   0  0  0  0  0  0  0  0  0  0  0  0
   10.1662   11.0606   10.8983 H   0  0  0  0  0  0  0  0  0  0  0  0
   11.0724   10.8147    9.3669 H   0  0  0  0  0  0  0  0  0  0  0  0
   10.1711   13.1312    9.7146 H   0  0  0  0  0  0  0  0  0  0  0  0
   11.9458   13.0449    9.4505 H   0  0  0  0  0  0  0  0  0  0  0  0
   13.7104   12.4138   10.9408 H   0  0  0  0  0  0  0  0  0  0  0  0
   13.9264   11.3849   12.3973 H   0  0  0  0  0  0  0  0  0  0  0  0
   12.7897   13.4936   13.0901 H   0  0  0  0  0  0  0  0  0  0  0  0
   11.6070   12.1451   13.1879 H   0  0  0  0  0  0  0  0  0  0  0  0
    8.2402   17.9630   13.6908 H   0  0  0  0  0  0  0  0  0  0  0  0
    9.2868   17.2253   14.9505 H   0  0  0  0  0  0  0  0  0  0  0  0
    8.1381   16.2009   14.0244 H   0  0  0  0  0  0  0  0  0  0  0  0
   10.2391   18.9090   12.5212 H   0  0  0  0  0  0  0  0  0  0  0  0
   11.5772   17.8394   11.9808 H   0  0  0  0  0  0  0  0  0  0  0  0
   11.3565   18.1885   13.7290 H   0  0  0  0  0  0  0  0  0  0  0  0
    9.5886   17.4445   10.9195 H   0  0  0  0  0  0  0  0  0  0  0  0
    8.2662   16.4580   11.6298 H   0  0  0  0  0  0  0  0  0  0  0  0
    9.8287   15.0259   10.0026 H   0  0  0  0  0  0  0  0  0  0  0  0
  1  2  2  0  0  0  0
  1  5  1  0  0  0  0
  2  3  1  0  0  0  0
  2 11  1  0  0  0  0
  3  4  2  0  0  0  0
  3 13  1  0  0  0  0
  5 12  2  0  0  0  0
  7  6  1  0  0  0  0
  7 26  1  0  0  0  0
  7 27  1  0  0  0  0
  8  7  1  0  0  0  0
  8 28  1  0  0  0  0
  8 29  1  0  0  0  0
  9  8  1  0  0  0  0
  9 10  1  0  0  0  0
  9 11  2  0  0  0  0
 10  1  1  0  0  0  0
 11 30  1  0  0  0  0
 12  4  1  0  0  0  0
 12 31  1  0  0  0  0
 13 14  1  0  0  0  0
 13 16  1  0  0  0  0
 14 15  1  0  0  0  0
 14 32  1  0  0  0  0
 14 33  1  0  0  0  0
 15 18  1  0  0  0  0
 15 34  1  0  0  0  0
 15 35  1  0  0  0  0
 16 17  1  0  0  0  0
 16 36  1  0  0  0  0
 16 37  1  0  0  0  0
 17 18  1  0  0  0  0
 17 38  1  0  0  0  0
 17 39  1  0  0  0  0
 18 19  2  0  0  0  0
 19 20  1  0  0  0  0
 19 25  1  0  0  0  0
 20 21  1  0  0  0  0
 21 22  1  0  0  0  0
 21 23  1  0  0  0  0
 21 24  1  0  0  0  0
 22 40  1  0  0  0  0
 22 41  1  0  0  0  0
 22 42  1  0  0  0  0
 23 43  1  0  0  0  0
 23 44  1  0  0  0  0
 23 45  1  0  0  0  0
 24 25  1  0  0  0  0
 24 46  1  0  0  0  0
 24 47  1  0  0  0  0
 25 48  1  0  0  0  0
M  END
