5dde_ligand
 OpenBabel08222323353D

 48 51  0  0  0  0  0  0  0  0999 V2000
  -13.2520    7.4600  -12.2020 C   0  0  0  0  0  0  0  0  0  0  0  0
  -13.3970    8.7780  -11.9270 C   0  0  0  0  0  0  0  0  0  0  0  0
  -12.3190    9.4840  -11.4370 C   0  0  0  0  0  0  0  0  0  0  0  0
  -11.1570    8.8430  -11.2460 N   0  0  0  0  0  0  0  0  0  0  0  0
  -12.1030    6.8520  -12.0180 N   0  0  0  0  0  0  0  0  0  0  0  0
  -17.5310    6.2240  -11.8250 F   0  0  0  0  0  0  0  0  0  0  0  0
  -17.7680    7.5810  -11.9130 C   0  0  0  0  0  0  0  0  0  0  0  0
  -19.1010    7.8030  -12.1910 F   0  0  0  0  0  0  0  0  0  0  0  0
  -16.8750    8.2040  -13.0580 C   0  0  0  0  0  0  0  0  0  0  0  0
  -15.4210    8.0730  -12.6820 C   0  0  0  0  0  0  0  0  0  0  0  0
  -14.6530    6.7680  -12.7940 S   0  0  0  0  0  0  0  0  0  0  0  0
  -14.6860    9.0950  -12.1990 C   0  0  0  0  0  0  0  0  0  0  0  0
  -10.9940    7.5090  -11.5400 C   0  0  0  0  0  0  0  0  0  0  0  0
  -12.2540   10.8230  -11.1400 N   0  0  0  0  0  0  0  0  0  0  0  0
  -13.1310   11.7750  -11.7850 C   0  0  0  0  0  0  0  0  0  0  0  0
  -12.3300   12.9030  -12.4800 C   0  0  0  0  0  0  0  0  0  0  0  0
  -11.1550   11.4480  -10.3760 C   0  0  0  0  0  0  0  0  0  0  0  0
  -11.3750   12.9430  -10.1980 C   0  0  0  0  0  0  0  0  0  0  0  0
  -11.5170   13.5910  -11.5120 N   0  0  0  0  0  4  0  0  0  0  0  0
  -10.8700   14.7040  -11.8200 C   0  0  0  0  0  0  0  0  0  0  0  0
  -10.9450   15.3970  -13.2810 S   0  0  0  0  0  0  0  0  0  0  0  0
  -10.0490   16.8270  -12.8590 C   0  0  0  0  0  0  0  0  0  0  0  0
   -8.9700   17.1010  -13.9130 C   0  0  0  0  0  0  0  0  0  0  0  0
  -10.9960   18.0300  -12.7630 C   0  0  0  0  0  0  0  0  0  0  0  0
   -9.4340   16.5520  -11.5530 C   0  0  0  0  0  0  0  0  0  0  0  0
  -10.0710   15.3710  -10.9720 N   0  0  0  0  0  0  0  0  0  0  0  0
  -17.5131    8.0568  -10.9546 H   0  0  0  0  0  0  0  0  0  0  0  0
  -17.1277    9.2671  -13.1839 H   0  0  0  0  0  0  0  0  0  0  0  0
  -17.0604    7.6689  -14.0010 H   0  0  0  0  0  0  0  0  0  0  0  0
  -15.0943   10.0921  -12.0407 H   0  0  0  0  0  0  0  0  0  0  0  0
  -10.0446    7.0043  -11.4025 H   0  0  0  0  0  0  0  0  0  0  0  0
  -13.7932   12.2208  -11.0283 H   0  0  0  0  0  0  0  0  0  0  0  0
  -13.7364   11.2500  -12.5385 H   0  0  0  0  0  0  0  0  0  0  0  0
  -13.0288   13.6156  -12.9425 H   0  0  0  0  0  0  0  0  0  0  0  0
  -11.6836   12.4672  -13.2560 H   0  0  0  0  0  0  0  0  0  0  0  0
  -10.2096   11.2882  -10.9152 H   0  0  0  0  0  0  0  0  0  0  0  0
  -11.0960   10.9755   -9.3844 H   0  0  0  0  0  0  0  0  0  0  0  0
  -10.5141   13.3774   -9.6688 H   0  0  0  0  0  0  0  0  0  0  0  0
  -12.2892   13.1091   -9.6093 H   0  0  0  0  0  0  0  0  0  0  0  0
   -8.4096   18.0064  -13.6372 H   0  0  0  0  0  0  0  0  0  0  0  0
   -9.4449   17.2484  -14.8942 H   0  0  0  0  0  0  0  0  0  0  0  0
   -8.2813   16.2448  -13.9639 H   0  0  0  0  0  0  0  0  0  0  0  0
  -10.4210   18.9289  -12.4959 H   0  0  0  0  0  0  0  0  0  0  0  0
  -11.7557   17.8380  -11.9910 H   0  0  0  0  0  0  0  0  0  0  0  0
  -11.4904   18.1859  -13.7332 H   0  0  0  0  0  0  0  0  0  0  0  0
   -9.5786   17.4154  -10.8870 H   0  0  0  0  0  0  0  0  0  0  0  0
   -8.3578   16.3653  -11.6830 H   0  0  0  0  0  0  0  0  0  0  0  0
   -9.9198   15.0764   -9.9967 H   0  0  0  0  0  0  0  0  0  0  0  0
  1  2  2  0  0  0  0
  1  5  1  0  0  0  0
  2  3  1  0  0  0  0
  2 12  1  0  0  0  0
  3  4  2  0  0  0  0
  3 14  1  0  0  0  0
  5 13  2  0  0  0  0
  7  6  1  0  0  0  0
  7  8  1  0  0  0  0
  7 27  1  0  0  0  0
  9  7  1  0  0  0  0
  9 28  1  0  0  0  0
  9 29  1  0  0  0  0
 10  9  1  0  0  0  0
 10 11  1  0  0  0  0
 10 12  2  0  0  0  0
 11  1  1  0  0  0  0
 12 30  1  0  0  0  0
 13  4  1  0  0  0  0
 13 31  1  0  0  0  0
 14 15  1  0  0  0  0
 14 17  1  0  0  0  0
 15 16  1  0  0  0  0
 15 32  1  0  0  0  0
 15 33  1  0  0  0  0
 16 19  1  0  0  0  0
 16 34  1  0  0  0  0
 16 35  1  0  0  0  0
 17 18  1  0  0  0  0
 17 36  1  0  0  0  0
 17 37  1  0  0  0  0
 18 19  1  0  0  0  0
 18 38  1  0  0  0  0
 18 39  1  0  0  0  0
 19 20  2  0  0  0  0
 20 21  1  0  0  0  0
 20 26  1  0  0  0  0
 21 22  1  0  0  0  0
 22 23  1  0  0  0  0
 22 24  1  0  0  0  0
 22 25  1  0  0  0  0
 23 40  1  0  0  0  0
 23 41  1  0  0  0  0
 23 42  1  0  0  0  0
 24 43  1  0  0  0  0
 24 44  1  0  0  0  0
 24 45  1  0  0  0  0
 25 26  1  0  0  0  0
 25 46  1  0  0  0  0
 25 47  1  0  0  0  0
 26 48  1  0  0  0  0
M  END
