5ddf_ligand
 OpenBabel08222323353D

 47 50  0  0  0  0  0  0  0  0999 V2000
   13.2240    7.6090   12.1510 C   0  0  0  0  0  0  0  0  0  0  0  0
   13.3430    8.9250   11.8640 C   0  0  0  0  0  0  0  0  0  0  0  0
   12.2620    9.6000   11.3850 C   0  0  0  0  0  0  0  0  0  0  0  0
   11.1220    8.9230   11.2000 N   0  0  0  0  0  0  0  0  0  0  0  0
   12.0980    6.9530   11.9880 N   0  0  0  0  0  0  0  0  0  0  0  0
   19.0430    8.0670   12.3930 F   0  0  0  0  0  0  0  0  0  0  0  0
   17.8120    7.8980   11.9210 C   0  0  0  0  0  0  0  0  0  0  0  0
   17.6350    6.6230   11.5900 F   0  0  0  0  0  0  0  0  0  0  0  0
   17.6410    8.6620   10.8480 F   0  0  0  0  0  0  0  0  0  0  0  0
   16.8080    8.2870   12.9820 C   0  0  0  0  0  0  0  0  0  0  0  0
   16.9490    7.4600   14.0030 F   0  0  0  0  0  0  0  0  0  0  0  0
   17.1010    9.5060   13.3960 F   0  0  0  0  0  0  0  0  0  0  0  0
   15.3630    8.2740   12.5740 C   0  0  0  0  0  0  0  0  0  0  0  0
   14.5790    7.0060   12.7310 S   0  0  0  0  0  0  0  0  0  0  0  0
   14.6120    9.3000   12.1320 C   0  0  0  0  0  0  0  0  0  0  0  0
   10.9750    7.5900   11.5180 C   0  0  0  0  0  0  0  0  0  0  0  0
   12.2300   10.9370   11.0920 N   0  0  0  0  0  0  0  0  0  0  0  0
   11.1980   11.5550   10.2250 C   0  0  0  0  0  0  0  0  0  0  0  0
   11.3030   13.0990   10.2280 C   0  0  0  0  0  0  0  0  0  0  0  0
   13.1920   11.8440   11.7640 C   0  0  0  0  0  0  0  0  0  0  0  0
   12.4590   12.9790   12.5010 C   0  0  0  0  0  0  0  0  0  0  0  0
   11.5290   13.6840   11.5850 N   0  0  0  0  0  0  0  0  0  0  0  0
   10.8980   14.8000   11.9410 C   0  0  0  0  0  0  0  0  0  0  0  0
   11.0440   15.5500   13.3950 S   0  0  0  0  0  0  0  0  0  0  0  0
    9.9940   16.8870   13.0510 C   0  0  0  0  0  0  0  0  0  0  0  0
    8.8560   16.9320   14.0800 C   0  0  0  0  0  0  0  0  0  0  0  0
   10.7880   18.1980   13.1040 C   0  0  0  0  0  0  0  0  0  0  0  0
    9.4430   16.6650   11.6710 C   0  0  0  0  0  0  0  0  0  0  0  0
   10.0710   15.4380   11.1250 N   0  0  0  0  0  0  0  0  0  0  0  0
   14.9850   10.3153   12.0052 H   0  0  0  0  0  0  0  0  0  0  0  0
   10.0284    7.0742   11.4039 H   0  0  0  0  0  0  0  0  0  0  0  0
   10.2026   11.2641   10.5916 H   0  0  0  0  0  0  0  0  0  0  0  0
   11.3308   11.1900    9.1959 H   0  0  0  0  0  0  0  0  0  0  0  0
   10.3668   13.5114    9.8238 H   0  0  0  0  0  0  0  0  0  0  0  0
   12.1424   13.3911    9.5799 H   0  0  0  0  0  0  0  0  0  0  0  0
   13.8627   12.2800   11.0090 H   0  0  0  0  0  0  0  0  0  0  0  0
   13.7832   11.2668   12.4902 H   0  0  0  0  0  0  0  0  0  0  0  0
   13.1987   13.6960   12.8866 H   0  0  0  0  0  0  0  0  0  0  0  0
   11.8874   12.5550   13.3397 H   0  0  0  0  0  0  0  0  0  0  0  0
    8.1935   17.7814   13.8571 H   0  0  0  0  0  0  0  0  0  0  0  0
    9.2782   17.0512   15.0887 H   0  0  0  0  0  0  0  0  0  0  0  0
    8.2806   15.9958   14.0316 H   0  0  0  0  0  0  0  0  0  0  0  0
   10.1173   19.0420   12.8852 H   0  0  0  0  0  0  0  0  0  0  0  0
   11.5953   18.1682   12.3575 H   0  0  0  0  0  0  0  0  0  0  0  0
   11.2208   18.3243   14.1074 H   0  0  0  0  0  0  0  0  0  0  0  0
    9.6829   17.5256   11.0292 H   0  0  0  0  0  0  0  0  0  0  0  0
    8.3516   16.5369   11.7198 H   0  0  0  0  0  0  0  0  0  0  0  0
  1  2  2  0  0  0  0
  1  5  1  0  0  0  0
  2  3  1  0  0  0  0
  2 15  1  0  0  0  0
  3  4  2  0  0  0  0
  3 17  1  0  0  0  0
  5 16  2  0  0  0  0
  7  6  1  0  0  0  0
  7  8  1  0  0  0  0
  7  9  1  0  0  0  0
 10  7  1  0  0  0  0
 10 11  1  0  0  0  0
 10 12  1  0  0  0  0
 13 10  1  0  0  0  0
 13 14  1  0  0  0  0
 13 15  2  0  0  0  0
 14  1  1  0  0  0  0
 15 30  1  0  0  0  0
 16  4  1  0  0  0  0
 16 31  1  0  0  0  0
 17 18  1  0  0  0  0
 17 20  1  0  0  0  0
 18 19  1  0  0  0  0
 18 32  1  0  0  0  0
 18 33  1  0  0  0  0
 19 22  1  0  0  0  0
 19 34  1  0  0  0  0
 19 35  1  0  0  0  0
 20 21  1  0  0  0  0
 20 36  1  0  0  0  0
 20 37  1  0  0  0  0
 21 22  1  0  0  0  0
 21 38  1  0  0  0  0
 21 39  1  0  0  0  0
 22 23  1  0  0  0  0
 23 24  1  0  0  0  0
 23 29  2  0  0  0  0
 24 25  1  0  0  0  0
 25 26  1  0  0  0  0
 25 27  1  0  0  0  0
 25 28  1  0  0  0  0
 26 40  1  0  0  0  0
 26 41  1  0  0  0  0
 26 42  1  0  0  0  0
 27 43  1  0  0  0  0
 27 44  1  0  0  0  0
 27 45  1  0  0  0  0
 28 29  1  0  0  0  0
 28 46  1  0  0  0  0
 28 47  1  0  0  0  0
M  END
