5dia_ligand
 OpenBabel08222323353D

 53 57  0  0  1  0  0  0  0  0999 V2000
   21.5690  -34.2560    4.2810 C   0  0  0  0  0  0  0  0  0  0  0  0
   23.6920  -38.8930    1.8920 C   0  0  0  0  0  0  0  0  0  0  0  0
   21.1960  -34.0680    5.7290 C   0  0  0  0  0  0  0  0  0  0  0  0
   23.5950  -38.2780    4.1550 C   0  0  0  0  0  0  0  0  0  0  0  0
   23.7510  -39.2420    3.2110 C   0  0  0  0  0  0  0  0  0  0  0  0
   23.4510  -37.6010    1.5470 C   0  0  0  0  0  0  0  0  0  0  0  0
   23.3210  -36.7160    2.4820 N   0  0  0  0  0  0  0  0  0  0  0  0
   23.3880  -36.9910    3.7360 C   0  0  0  0  0  0  0  0  0  0  0  0
   23.2630  -35.9770    4.6520 N   0  0  0  0  0  0  0  0  0  0  0  0
   23.0270  -34.6290    4.1900 C   0  0  2  0  0  0  0  0  0  0  0  0
   22.0030  -32.9010    6.2520 C   0  0  0  0  0  0  0  0  0  0  0  0
   23.5040  -33.1650    6.2200 C   0  0  1  0  0  0  0  0  0  0  0  0
   23.9260  -33.5760    4.8280 C   0  0  0  0  0  0  0  0  0  0  0  0
   24.2630  -31.9920    6.6450 N   0  3  0  0  0  0  0  0  0  0  0  0
   23.3920  -37.2070    0.1250 C   0  0  0  0  0  0  0  0  0  0  0  0
   23.0080  -35.9120   -0.3890 C   0  0  0  0  0  0  0  0  0  0  0  0
   22.6050  -34.7110    0.1600 C   0  0  0  0  0  0  0  0  0  0  0  0
   22.3230  -33.6540   -0.6650 C   0  0  0  0  0  0  0  0  0  0  0  0
   22.4540  -33.7850   -1.9550 N   0  0  0  0  0  0  0  0  0  0  0  0
   22.8120  -34.8940   -2.4990 C   0  0  0  0  0  0  0  0  0  0  0  0
   23.1170  -36.0000   -1.7550 C   0  0  0  0  0  0  0  0  0  0  0  0
   23.5160  -37.2430   -2.0280 N   0  0  0  0  0  0  0  0  0  0  0  0
   23.6770  -37.9400   -0.8820 N   0  0  0  0  0  0  0  0  0  0  0  0
   21.8890  -32.3510   -0.1360 C   0  0  0  0  0  0  0  0  0  0  0  0
   22.0110  -32.0160    1.2010 C   0  0  0  0  0  0  0  0  0  0  0  0
   21.5900  -30.7860    1.6090 C   0  0  0  0  0  0  0  0  0  0  0  0
   21.0760  -29.9270    0.6810 C   0  0  0  0  0  0  0  0  0  0  0  0
   20.9730  -30.2680   -0.5670 N   0  0  0  0  0  0  0  0  0  0  0  0
   21.3590  -31.4180   -0.9970 C   0  0  0  0  0  0  0  0  0  0  0  0
   21.3937  -33.3196    3.7311 H   0  0  0  0  0  0  0  0  0  0  0  0
   20.9560  -35.0581    3.8441 H   0  0  0  0  0  0  0  0  0  0  0  0
   23.8368  -39.6436    1.1234 H   0  0  0  0  0  0  0  0  0  0  0  0
   21.4345  -34.9771    6.3005 H   0  0  0  0  0  0  0  0  0  0  0  0
   20.1210  -33.8516    5.8160 H   0  0  0  0  0  0  0  0  0  0  0  0
   23.6333  -38.5208    5.2108 H   0  0  0  0  0  0  0  0  0  0  0  0
   23.9198  -40.2730    3.5002 H   0  0  0  0  0  0  0  0  0  0  0  0
   23.3368  -36.1754    5.6600 H   0  0  0  0  0  0  0  0  0  0  0  0
   23.2800  -34.6297    3.1195 H   0  0  0  0  0  0  0  0  0  0  0  0
   21.7024  -32.7023    7.2913 H   0  0  0  0  0  0  0  0  0  0  0  0
   21.7874  -32.0178    5.6327 H   0  0  0  0  0  0  0  0  0  0  0  0
   23.7253  -33.9902    6.9128 H   0  0  0  0  0  0  0  0  0  0  0  0
   23.9194  -32.6820    4.1871 H   0  0  0  0  0  0  0  0  0  0  0  0
   24.9474  -33.9808    4.8822 H   0  0  0  0  0  0  0  0  0  0  0  0
   23.9760  -31.7244    7.5735 H   0  0  0  0  0  0  0  0  0  0  0  0
   24.0900  -31.2307    6.0074 H   0  0  0  0  0  0  0  0  0  0  0  0
   25.2469  -32.2112    6.6476 H   0  0  0  0  0  0  0  0  0  0  0  0
   22.5125  -34.6052    1.2348 H   0  0  0  0  0  0  0  0  0  0  0  0
   22.8738  -34.9538   -3.5796 H   0  0  0  0  0  0  0  0  0  0  0  0
   23.6777  -37.6168   -2.9741 H   0  0  0  0  0  0  0  0  0  0  0  0
   22.4334  -32.7186    1.9102 H   0  0  0  0  0  0  0  0  0  0  0  0
   21.6619  -30.4951    2.6508 H   0  0  0  0  0  0  0  0  0  0  0  0
   20.7478  -28.9418    0.9922 H   0  0  0  0  0  0  0  0  0  0  0  0
   21.2653  -31.6544   -2.0508 H   0  0  0  0  0  0  0  0  0  0  0  0
  1  3  1  0  0  0  0
  1 30  1  0  0  0  0
  1 31  1  0  0  0  0
  2 32  1  0  0  0  0
  3 11  1  0  0  0  0
  3 33  1  0  0  0  0
  3 34  1  0  0  0  0
  4  5  1  0  0  0  0
  4 35  1  0  0  0  0
  5  2  2  0  0  0  0
  5 36  1  0  0  0  0
  6  2  1  0  0  0  0
  6 15  1  0  0  0  0
  7  6  2  0  0  0  0
  8  4  2  0  0  0  0
  8  7  1  0  0  0  0
  9  8  1  0  0  0  0
  9 10  1  0  0  0  0
  9 37  1  0  0  0  0
 10  1  1  0  0  0  0
 10 13  1  0  0  0  0
 10 38  1  6  0  0  0
 11 12  1  0  0  0  0
 11 39  1  0  0  0  0
 11 40  1  0  0  0  0
 12 13  1  0  0  0  0
 12 14  1  0  0  0  0
 12 41  1  1  0  0  0
 13 42  1  0  0  0  0
 13 43  1  0  0  0  0
 14 44  1  0  0  0  0
 14 45  1  0  0  0  0
 14 46  1  0  0  0  0
 15 16  1  0  0  0  0
 15 23  2  0  0  0  0
 16 17  2  0  0  0  0
 16 21  1  0  0  0  0
 17 18  1  0  0  0  0
 17 47  1  0  0  0  0
 18 19  2  0  0  0  0
 18 24  1  0  0  0  0
 19 20  1  0  0  0  0
 20 21  2  0  0  0  0
 20 48  1  0  0  0  0
 21 22  1  0  0  0  0
 22 23  1  0  0  0  0
 22 49  1  0  0  0  0
 24 25  2  0  0  0  0
 24 29  1  0  0  0  0
 25 26  1  0  0  0  0
 25 50  1  0  0  0  0
 26 27  2  0  0  0  0
 26 51  1  0  0  0  0
 27 28  1  0  0  0  0
 27 52  1  0  0  0  0
 28 29  2  0  0  0  0
 29 53  1  0  0  0  0
M  CHG  1  14   1
M  END
