5diq_ligand
 OpenBabel08222323353D

 34 36  0  0  0  0  0  0  0  0999 V2000
    3.3950   76.7520   28.5200 C   0  0  0  0  0  0  0  0  0  0  0  0
    2.7650   75.4770   28.4890 C   0  0  0  0  0  0  0  0  0  0  0  0
    2.6440   77.9090   28.1690 C   0  0  0  0  0  0  0  0  0  0  0  0
    0.6840   76.5280   27.7290 C   0  0  0  0  0  0  0  0  0  0  0  0
    4.5810   79.3280   28.5740 C   0  0  0  0  0  0  0  0  0  0  0  0
    5.6660   72.9830   28.2520 C   0  0  0  0  0  0  0  0  0  0  0  0
    6.8800   73.2950   27.5790 C   0  0  0  0  0  0  0  0  0  0  0  0
    5.6630   71.9470   29.2200 C   0  0  0  0  0  0  0  0  0  0  0  0
    8.0630   72.5940   27.8910 C   0  0  0  0  0  0  0  0  0  0  0  0
    6.9450   74.3690   26.5010 C   0  0  0  0  0  0  0  0  0  0  0  0
    6.8520   71.2630   29.5340 C   0  0  0  0  0  0  0  0  0  0  0  0
    8.0470   71.5800   28.8690 C   0  0  0  0  0  0  0  0  0  0  0  0
    4.7580   76.9230   28.8870 C   0  0  0  0  0  0  0  0  0  0  0  0
    3.5010   74.1670   28.8820 C   0  0  0  0  0  0  0  0  0  0  0  0
    1.4260   75.3850   28.0640 C   0  0  0  0  0  0  0  0  0  0  0  0
    1.3040   77.7850   27.7420 C   0  0  0  0  0  0  0  0  0  0  0  0
    3.2410   79.1920   28.1790 C   0  0  0  0  0  0  0  0  0  0  0  0
    5.3470   78.2000   28.9090 C   0  0  0  0  0  0  0  0  0  0  0  0
    4.4930   73.7050   27.9310 O   0  0  0  0  0  0  0  0  0  0  0  0
    8.0720   75.0670   26.3210 O   0  5  0  0  0  0  0  0  0  0  0  0
    5.9750   74.5890   25.7920 O   0  0  0  0  0  0  0  0  0  0  0  0
   -0.3628   76.4393   27.4617 H   0  0  0  0  0  0  0  0  0  0  0  0
    5.0291   80.3140   28.6209 H   0  0  0  0  0  0  0  0  0  0  0  0
    4.7395   71.6803   29.7211 H   0  0  0  0  0  0  0  0  0  0  0  0
    8.9865   72.8357   27.3774 H   0  0  0  0  0  0  0  0  0  0  0  0
    6.8452   70.4884   30.2923 H   0  0  0  0  0  0  0  0  0  0  0  0
    8.9584   71.0441   29.1082 H   0  0  0  0  0  0  0  0  0  0  0  0
    5.3519   76.0563   29.1538 H   0  0  0  0  0  0  0  0  0  0  0  0
    2.7466   73.3749   28.9980 H   0  0  0  0  0  0  0  0  0  0  0  0
    4.0059   74.3364   29.8445 H   0  0  0  0  0  0  0  0  0  0  0  0
    0.9579   74.4098   27.9940 H   0  0  0  0  0  0  0  0  0  0  0  0
    0.7539   78.6632   27.4238 H   0  0  0  0  0  0  0  0  0  0  0  0
    2.6677   80.0633   27.8838 H   0  0  0  0  0  0  0  0  0  0  0  0
    6.3895   78.3130   29.1838 H   0  0  0  0  0  0  0  0  0  0  0  0
  1  3  1  0  0  0  0
  1 13  1  0  0  0  0
  2  1  2  0  0  0  0
  2 15  1  0  0  0  0
  3 16  2  0  0  0  0
  3 17  1  0  0  0  0
  4 16  1  0  0  0  0
  4 22  1  0  0  0  0
  5 23  1  0  0  0  0
  6  7  2  0  0  0  0
  6  8  1  0  0  0  0
  7  9  1  0  0  0  0
  7 10  1  0  0  0  0
  8 11  2  0  0  0  0
  8 24  1  0  0  0  0
  9 12  2  0  0  0  0
  9 25  1  0  0  0  0
 10 20  1  0  0  0  0
 10 21  2  0  0  0  0
 11 12  1  0  0  0  0
 11 26  1  0  0  0  0
 12 27  1  0  0  0  0
 13 18  2  0  0  0  0
 13 28  1  0  0  0  0
 14  2  1  0  0  0  0
 14 19  1  0  0  0  0
 14 29  1  0  0  0  0
 14 30  1  0  0  0  0
 15  4  2  0  0  0  0
 15 31  1  0  0  0  0
 16 32  1  0  0  0  0
 17  5  2  0  0  0  0
 17 33  1  0  0  0  0
 18  5  1  0  0  0  0
 18 34  1  0  0  0  0
 19  6  1  0  0  0  0
M  CHG  1  20  -1
M  END
