5dls_ligand
 OpenBabel08222323353D

 75 79  0  0  0  0  0  0  0  0999 V2000
    5.8700   -4.0460   18.0870 C   0  0  0  0  0  0  0  0  0  0  0  0
    6.4420   -2.9750   18.7530 C   0  0  0  0  0  0  0  0  0  0  0  0
    2.4350   -3.8330   19.4790 C   0  0  0  0  0  0  0  0  0  0  0  0
    1.6620   -4.8550   19.0900 C   0  0  0  0  0  0  0  0  0  0  0  0
   -1.9260   -4.7870   20.0640 C   0  0  0  0  0  0  0  0  0  0  0  0
   -6.3370   -8.0540   18.1840 C   0  0  0  0  0  0  0  0  0  0  0  0
    8.4330   -5.6000   15.7670 C   0  0  0  0  0  0  0  0  0  0  0  0
   -4.3700   -9.2590   17.3380 C   0  0  0  0  0  0  0  0  0  0  0  0
   -3.0490   -6.7380   19.5930 C   0  0  0  0  0  0  0  0  0  0  0  0
   -0.7860   -5.3450   19.4770 C   0  0  0  0  0  0  0  0  0  0  0  0
    3.7920   -3.5960   19.2320 C   0  0  0  0  0  0  0  0  0  0  0  0
    3.7620   -1.7910   20.7000 O   0  0  0  0  0  0  0  0  0  0  0  0
    0.4240   -3.4050   20.1800 C   0  0  0  0  0  0  0  0  0  0  0  0
    0.4050   -4.6290   19.5330 C   0  0  0  0  0  0  0  0  0  0  0  0
   -4.8850   -8.3020   18.3380 N   0  3  0  0  0  0  0  0  0  0  0  0
   -4.5030   -8.6950   19.7100 C   0  0  0  0  0  0  0  0  0  0  0  0
   -4.0170   -7.4740   20.4980 C   0  0  0  0  0  0  0  0  0  0  0  0
   -3.2030   -7.8980   21.7410 C   0  0  0  0  0  0  0  0  0  0  0  0
   -5.2170   -6.5660   20.8860 C   0  0  0  0  0  0  0  0  0  0  0  0
   -3.1470   -5.3800   20.0420 O   0  0  0  0  0  0  0  0  0  0  0  0
   -1.8910   -3.5610   20.6950 C   0  0  0  0  0  0  0  0  0  0  0  0
   -0.7070   -2.8630   20.7710 C   0  0  0  0  0  0  0  0  0  0  0  0
    1.6520   -2.9430   20.1230 N   0  0  0  0  0  0  0  0  0  0  0  0
    4.5320   -4.3600   18.3510 C   0  0  0  0  0  0  0  0  0  0  0  0
    4.3840   -2.5070   19.8820 C   0  0  0  0  0  0  0  0  0  0  0  0
    5.6950   -2.1720   19.6190 N   0  0  0  0  0  0  0  0  0  0  0  0
    6.5910   -4.8100   17.2340 N   0  0  0  0  0  0  0  0  0  0  0  0
    7.7590   -4.4970   16.5780 C   0  0  0  0  0  0  0  0  0  0  0  0
    8.3500   -3.4080   16.6940 O   0  0  0  0  0  0  0  0  0  0  0  0
    7.7300   -6.6760   15.3480 C   0  0  0  0  0  0  0  0  0  0  0  0
    9.7460   -5.7260   15.4120 C   0  0  0  0  0  0  0  0  0  0  0  0
    9.8720   -6.9100   14.7130 N   0  0  0  0  0  0  0  0  0  0  0  0
    8.5510   -7.5200   14.7150 N   0  0  0  0  0  0  0  0  0  0  0  0
    8.0470   -8.7760   14.1450 C   0  0  0  0  0  0  0  0  0  0  0  0
    8.6350   -9.9410   14.9340 C   0  0  0  0  0  0  0  0  0  0  0  0
    8.1590  -10.1990   16.2410 C   0  0  0  0  0  0  0  0  0  0  0  0
    8.6930  -11.2550   17.0040 C   0  0  0  0  0  0  0  0  0  0  0  0
    9.7060  -12.0420   16.4390 C   0  0  0  0  0  0  0  0  0  0  0  0
   10.1820  -11.7980   15.1330 C   0  0  0  0  0  0  0  0  0  0  0  0
    9.6490  -10.7430   14.3760 C   0  0  0  0  0  0  0  0  0  0  0  0
    7.4970   -2.7537   18.5985 H   0  0  0  0  0  0  0  0  0  0  0  0
    1.9898   -5.7199   18.5153 H   0  0  0  0  0  0  0  0  0  0  0  0
   -6.5516   -7.7669   17.1440 H   0  0  0  0  0  0  0  0  0  0  0  0
   -6.6439   -7.2418   18.8593 H   0  0  0  0  0  0  0  0  0  0  0  0
   -6.8939   -8.9690   18.4341 H   0  0  0  0  0  0  0  0  0  0  0  0
   -3.2915   -9.4083   17.4948 H   0  0  0  0  0  0  0  0  0  0  0  0
   -4.5419   -8.8610   16.3270 H   0  0  0  0  0  0  0  0  0  0  0  0
   -4.8929  -10.2206   17.4474 H   0  0  0  0  0  0  0  0  0  0  0  0
   -3.3495   -6.8272   18.5386 H   0  0  0  0  0  0  0  0  0  0  0  0
   -2.0252   -7.1210   19.7162 H   0  0  0  0  0  0  0  0  0  0  0  0
   -0.8296   -6.3125   18.9900 H   0  0  0  0  0  0  0  0  0  0  0  0
   -4.4279   -7.4222   18.1563 H   0  0  0  0  0  0  0  0  0  0  0  0
   -3.6957   -9.4407   19.6623 H   0  0  0  0  0  0  0  0  0  0  0  0
   -5.3754   -9.1311   20.2186 H   0  0  0  0  0  0  0  0  0  0  0  0
   -2.8692   -7.0015   22.2840 H   0  0  0  0  0  0  0  0  0  0  0  0
   -2.3265   -8.4819   21.4236 H   0  0  0  0  0  0  0  0  0  0  0  0
   -3.8338   -8.5123   22.4003 H   0  0  0  0  0  0  0  0  0  0  0  0
   -5.7720   -6.2845   19.9790 H   0  0  0  0  0  0  0  0  0  0  0  0
   -4.8444   -5.6588   21.3842 H   0  0  0  0  0  0  0  0  0  0  0  0
   -5.8840   -7.1120   21.5694 H   0  0  0  0  0  0  0  0  0  0  0  0
   -2.7939   -3.1480   21.1301 H   0  0  0  0  0  0  0  0  0  0  0  0
   -0.6598   -1.9086   21.2827 H   0  0  0  0  0  0  0  0  0  0  0  0
    1.9679   -2.0420   20.5095 H   0  0  0  0  0  0  0  0  0  0  0  0
    4.0704   -5.2140   17.8576 H   0  0  0  0  0  0  0  0  0  0  0  0
    6.1062   -1.3648   20.0424 H   0  0  0  0  0  0  0  0  0  0  0  0
    6.2261   -5.7240   17.0569 H   0  0  0  0  0  0  0  0  0  0  0  0
    6.6631   -6.8308   15.5019 H   0  0  0  0  0  0  0  0  0  0  0  0
   10.5458   -5.0224   15.6385 H   0  0  0  0  0  0  0  0  0  0  0  0
    8.3507   -8.8523   13.0905 H   0  0  0  0  0  0  0  0  0  0  0  0
    6.9494   -8.7993   14.2130 H   0  0  0  0  0  0  0  0  0  0  0  0
    7.3754   -9.5776   16.6592 H   0  0  0  0  0  0  0  0  0  0  0  0
    8.3291  -11.4548   18.0054 H   0  0  0  0  0  0  0  0  0  0  0  0
   10.1323  -12.8542   17.0167 H   0  0  0  0  0  0  0  0  0  0  0  0
   10.9600  -12.4260   14.7141 H   0  0  0  0  0  0  0  0  0  0  0  0
   10.0136  -10.5480   13.3739 H   0  0  0  0  0  0  0  0  0  0  0  0
  1  2  2  0  0  0  0
  1 24  1  0  0  0  0
  2 26  1  0  0  0  0
  2 41  1  0  0  0  0
  3  4  2  0  0  0  0
  3 23  1  0  0  0  0
  4 14  1  0  0  0  0
  4 42  1  0  0  0  0
  5 20  1  0  0  0  0
  6 43  1  0  0  0  0
  6 44  1  0  0  0  0
  6 45  1  0  0  0  0
  7 30  2  0  0  0  0
  7 31  1  0  0  0  0
  8 46  1  0  0  0  0
  8 47  1  0  0  0  0
  8 48  1  0  0  0  0
  9 17  1  0  0  0  0
  9 49  1  0  0  0  0
  9 50  1  0  0  0  0
 10  5  2  0  0  0  0
 10 51  1  0  0  0  0
 11  3  1  0  0  0  0
 11 25  1  0  0  0  0
 13 14  2  0  0  0  0
 13 22  1  0  0  0  0
 14 10  1  0  0  0  0
 15  6  1  0  0  0  0
 15  8  1  0  0  0  0
 15 52  1  0  0  0  0
 16 15  1  0  0  0  0
 16 53  1  0  0  0  0
 16 54  1  0  0  0  0
 17 16  1  0  0  0  0
 17 18  1  0  0  0  0
 17 19  1  0  0  0  0
 18 55  1  0  0  0  0
 18 56  1  0  0  0  0
 18 57  1  0  0  0  0
 19 58  1  0  0  0  0
 19 59  1  0  0  0  0
 19 60  1  0  0  0  0
 20  9  1  0  0  0  0
 21  5  1  0  0  0  0
 21 61  1  0  0  0  0
 22 21  2  0  0  0  0
 22 62  1  0  0  0  0
 23 13  1  0  0  0  0
 23 63  1  0  0  0  0
 24 11  2  0  0  0  0
 24 64  1  0  0  0  0
 25 12  2  0  0  0  0
 26 25  1  0  0  0  0
 26 65  1  0  0  0  0
 27  1  1  0  0  0  0
 27 28  1  0  0  0  0
 27 66  1  0  0  0  0
 28  7  1  0  0  0  0
 28 29  2  0  0  0  0
 30 33  1  0  0  0  0
 30 67  1  0  0  0  0
 31 32  2  0  0  0  0
 31 68  1  0  0  0  0
 32 33  1  0  0  0  0
 33 34  1  0  0  0  0
 34 35  1  0  0  0  0
 34 69  1  0  0  0  0
 34 70  1  0  0  0  0
 35 36  2  0  0  0  0
 35 40  1  0  0  0  0
 36 37  1  0  0  0  0
 36 71  1  0  0  0  0
 37 38  2  0  0  0  0
 37 72  1  0  0  0  0
 38 39  1  0  0  0  0
 38 73  1  0  0  0  0
 39 40  2  0  0  0  0
 39 74  1  0  0  0  0
 40 75  1  0  0  0  0
M  CHG  1  15   1
M  END
