5dms_ligand
 OpenBabel08222323353D

 86 85  0  0  1  0  0  0  0  0999 V2000
  -54.0710   -5.6270   70.8840 N   0  3  0  0  0  0  0  0  0  0  0  0
  -52.8830   -4.7800   70.9690 C   0  0  2  0  0  0  0  0  0  0  0  0
  -52.7390   -4.1660   72.3630 C   0  0  0  0  0  0  0  0  0  0  0  0
  -53.5500   -3.3280   72.7720 O   0  0  0  0  0  0  0  0  0  0  0  0
  -52.9370   -3.6790   69.9180 C   0  0  0  0  0  0  0  0  0  0  0  0
  -51.8570   -2.6380   70.0720 C   0  0  0  0  0  0  0  0  0  0  0  0
  -50.4750   -3.2480   69.8980 C   0  0  0  0  0  0  0  0  0  0  0  0
  -49.3810   -2.2430   70.2370 C   0  0  0  0  0  0  0  0  0  0  0  0
  -49.3560   -1.0750   69.2980 N   0  3  0  0  0  0  0  0  0  0  0  0
  -51.7040   -4.5850   73.0860 N   0  0  0  0  0  0  0  0  0  0  0  0
  -51.5250   -4.1760   74.4750 C   0  0  2  0  0  0  0  0  0  0  0  0
  -50.0790   -3.8230   74.8260 C   0  0  0  0  0  0  0  0  0  0  0  0
  -49.1680   -3.9270   73.9940 O   0  0  0  0  0  0  0  0  0  0  0  0
  -51.9790   -5.2870   75.4530 C   0  0  2  0  0  0  0  0  0  0  0  0
  -50.9730   -6.3050   75.5120 O   0  0  0  0  0  0  0  0  0  0  0  0
  -53.3150   -5.9050   75.0300 C   0  0  0  0  0  0  0  0  0  0  0  0
  -49.8910   -3.4070   76.0770 N   0  0  0  0  0  0  0  0  0  0  0  0
  -48.5700   -3.2240   76.6660 C   0  0  2  0  0  0  0  0  0  0  0  0
  -47.9520   -4.5850   76.9310 C   0  0  0  0  0  0  0  0  0  0  0  0
  -48.5820   -5.6110   76.6660 O   0  0  0  0  0  0  0  0  0  0  0  0
  -48.6510   -2.4160   77.9670 C   0  0  0  0  0  0  0  0  0  0  0  0
  -49.4940   -3.0440   78.9250 O   0  0  0  0  0  0  0  0  0  0  0  0
  -46.7310   -4.5840   77.4690 N   0  0  0  0  0  0  0  0  0  0  0  0
  -45.9210   -5.7920   77.5880 C   0  0  1  0  0  0  0  0  0  0  0  0
  -44.5110   -5.4450   78.1140 C   0  0  1  0  0  0  0  0  0  0  0  0
  -43.6710   -6.7130   78.2430 C   0  0  0  0  0  0  0  0  0  0  0  0
  -43.8680   -4.6190   77.1640 O   0  0  0  0  0  0  0  0  0  0  0  0
  -43.6700   -3.1140   77.7080 P   0  0  0  0  0  0  0  0  0  0  0  0
  -42.9110   -2.3520   76.5020 O   0  0  0  0  0  1  0  0  0  0  0  0
  -45.0700   -2.3700   77.9570 O   0  0  0  0  0  1  0  0  0  0  0  0
  -42.8440   -3.0940   78.9430 O   0  0  0  0  0  0  0  0  0  0  0  0
  -46.5250   -6.9200   78.4170 C   0  0  0  0  0  0  0  0  0  0  0  0
  -46.9070   -6.7290   79.5750 O   0  0  0  0  0  0  0  0  0  0  0  0
  -46.6000   -8.0960   77.8020 N   0  0  0  0  0  0  0  0  0  0  0  0
  -46.9950   -9.3180   78.4880 C   0  0  2  0  0  0  0  0  0  0  0  0
  -45.8660   -9.8330   79.3770 C   0  0  0  0  0  0  0  0  0  0  0  0
  -44.7000   -9.8570   78.9620 O   0  5  0  0  0  0  0  0  0  0  0  0
  -47.3920  -10.4130   77.4840 C   0  0  2  0  0  0  0  0  0  0  0  0
  -48.7150  -10.0480   76.8060 C   0  0  0  0  0  0  0  0  0  0  0  0
  -47.4810  -11.7650   78.1810 C   0  0  0  0  0  0  0  0  0  0  0  0
  -48.5810   -9.7770   75.3280 C   0  0  0  0  0  0  0  0  0  0  0  0
  -46.1020  -10.2330   80.5240 O   0  0  0  0  0  0  0  0  0  0  0  0
  -54.1400   -6.0169   69.9570 H   0  0  0  0  0  0  0  0  0  0  0  0
  -54.8918   -5.0751   71.0783 H   0  0  0  0  0  0  0  0  0  0  0  0
  -54.0006   -6.3732   71.5580 H   0  0  0  0  0  0  0  0  0  0  0  0
  -51.9996   -5.4055   70.7735 H   0  0  0  0  0  0  0  0  0  0  0  0
  -53.9139   -3.1785   69.9897 H   0  0  0  0  0  0  0  0  0  0  0  0
  -52.8339   -4.1416   68.9253 H   0  0  0  0  0  0  0  0  0  0  0  0
  -51.9286   -2.1926   71.0752 H   0  0  0  0  0  0  0  0  0  0  0  0
  -52.0019   -1.8558   69.3123 H   0  0  0  0  0  0  0  0  0  0  0  0
  -50.3543   -3.5705   68.8533 H   0  0  0  0  0  0  0  0  0  0  0  0
  -50.3809   -4.1186   70.5637 H   0  0  0  0  0  0  0  0  0  0  0  0
  -48.4077   -2.7532   70.1896 H   0  0  0  0  0  0  0  0  0  0  0  0
  -49.5501   -1.8699   71.2579 H   0  0  0  0  0  0  0  0  0  0  0  0
  -48.6172   -0.4439   69.5663 H   0  0  0  0  0  0  0  0  0  0  0  0
  -50.2404   -0.5930   69.3376 H   0  0  0  0  0  0  0  0  0  0  0  0
  -49.1935   -1.4025   68.3586 H   0  0  0  0  0  0  0  0  0  0  0  0
  -51.0319   -5.1955   72.6670 H   0  0  0  0  0  0  0  0  0  0  0  0
  -52.1476   -3.2844   74.6401 H   0  0  0  0  0  0  0  0  0  0  0  0
  -52.1002   -4.8453   76.4531 H   0  0  0  0  0  0  0  0  0  0  0  0
  -50.1574   -5.9254   75.8173 H   0  0  0  0  0  0  0  0  0  0  0  0
  -53.6010   -6.6872   75.7486 H   0  0  0  0  0  0  0  0  0  0  0  0
  -53.2136   -6.3471   74.0279 H   0  0  0  0  0  0  0  0  0  0  0  0
  -54.0900   -5.1246   75.0098 H   0  0  0  0  0  0  0  0  0  0  0  0
  -50.6943   -3.2108   76.6393 H   0  0  0  0  0  0  0  0  0  0  0  0
  -47.9367   -2.6763   75.9526 H   0  0  0  0  0  0  0  0  0  0  0  0
  -49.0508   -1.4164   77.7414 H   0  0  0  0  0  0  0  0  0  0  0  0
  -47.6403   -2.3198   78.3904 H   0  0  0  0  0  0  0  0  0  0  0  0
  -49.1520   -3.9065   79.1290 H   0  0  0  0  0  0  0  0  0  0  0  0
  -46.3555   -3.7200   77.8044 H   0  0  0  0  0  0  0  0  0  0  0  0
  -45.8042   -6.1864   76.5678 H   0  0  0  0  0  0  0  0  0  0  0  0
  -44.5857   -4.9347   79.0856 H   0  0  0  0  0  0  0  0  0  0  0  0
  -42.6701   -6.4532   78.6181 H   0  0  0  0  0  0  0  0  0  0  0  0
  -43.5799   -7.1943   77.2581 H   0  0  0  0  0  0  0  0  0  0  0  0
  -44.1576   -7.4053   78.9458 H   0  0  0  0  0  0  0  0  0  0  0  0
  -46.3760   -8.1434   76.8286 H   0  0  0  0  0  0  0  0  0  0  0  0
  -47.8652   -9.0916   79.1216 H   0  0  0  0  0  0  0  0  0  0  0  0
  -46.6130  -10.4756   76.7099 H   0  0  0  0  0  0  0  0  0  0  0  0
  -49.1166   -9.1456   77.2901 H   0  0  0  0  0  0  0  0  0  0  0  0
  -49.4185  -10.8822   76.9443 H   0  0  0  0  0  0  0  0  0  0  0  0
  -46.5165  -11.9965   78.6566 H   0  0  0  0  0  0  0  0  0  0  0  0
  -47.7215  -12.5434   77.4420 H   0  0  0  0  0  0  0  0  0  0  0  0
  -48.2691  -11.7311   78.9477 H   0  0  0  0  0  0  0  0  0  0  0  0
  -49.5666   -9.5226   74.9111 H   0  0  0  0  0  0  0  0  0  0  0  0
  -48.1903  -10.6737   74.8247 H   0  0  0  0  0  0  0  0  0  0  0  0
  -47.8884   -8.9370   75.1705 H   0  0  0  0  0  0  0  0  0  0  0  0
  1  2  1  0  0  0  0
  1 43  1  0  0  0  0
  1 44  1  0  0  0  0
  1 45  1  0  0  0  0
  2  3  1  0  0  0  0
  2  5  1  0  0  0  0
  2 46  1  6  0  0  0
  3  4  2  0  0  0  0
  3 10  1  0  0  0  0
  5  6  1  0  0  0  0
  5 47  1  0  0  0  0
  5 48  1  0  0  0  0
  6  7  1  0  0  0  0
  6 49  1  0  0  0  0
  6 50  1  0  0  0  0
  7  8  1  0  0  0  0
  7 51  1  0  0  0  0
  7 52  1  0  0  0  0
  8  9  1  0  0  0  0
  8 53  1  0  0  0  0
  8 54  1  0  0  0  0
  9 55  1  0  0  0  0
  9 56  1  0  0  0  0
  9 57  1  0  0  0  0
 10 11  1  0  0  0  0
 10 58  1  0  0  0  0
 11 12  1  0  0  0  0
 11 14  1  0  0  0  0
 11 59  1  1  0  0  0
 12 13  2  0  0  0  0
 12 17  1  0  0  0  0
 14 15  1  0  0  0  0
 14 16  1  0  0  0  0
 14 60  1  1  0  0  0
 15 61  1  0  0  0  0
 16 62  1  0  0  0  0
 16 63  1  0  0  0  0
 16 64  1  0  0  0  0
 17 18  1  0  0  0  0
 17 65  1  0  0  0  0
 18 19  1  0  0  0  0
 18 21  1  0  0  0  0
 18 66  1  6  0  0  0
 19 20  2  0  0  0  0
 19 23  1  0  0  0  0
 21 22  1  0  0  0  0
 21 67  1  0  0  0  0
 21 68  1  0  0  0  0
 22 69  1  0  0  0  0
 23 24  1  0  0  0  0
 23 70  1  0  0  0  0
 24 25  1  0  0  0  0
 24 32  1  0  0  0  0
 24 71  1  6  0  0  0
 25 26  1  0  0  0  0
 25 27  1  0  0  0  0
 25 72  1  1  0  0  0
 26 73  1  0  0  0  0
 26 74  1  0  0  0  0
 26 75  1  0  0  0  0
 27 28  1  0  0  0  0
 28 29  1  0  0  0  0
 28 30  1  0  0  0  0
 28 31  2  0  0  0  0
 32 33  2  0  0  0  0
 32 34  1  0  0  0  0
 34 35  1  0  0  0  0
 34 76  1  0  0  0  0
 35 36  1  0  0  0  0
 35 38  1  0  0  0  0
 35 77  1  1  0  0  0
 36 37  1  0  0  0  0
 36 42  2  0  0  0  0
 38 39  1  0  0  0  0
 38 40  1  0  0  0  0
 38 78  1  6  0  0  0
 39 41  1  0  0  0  0
 39 79  1  0  0  0  0
 39 80  1  0  0  0  0
 40 81  1  0  0  0  0
 40 82  1  0  0  0  0
 40 83  1  0  0  0  0
 41 84  1  0  0  0  0
 41 85  1  0  0  0  0
 41 86  1  0  0  0  0
M  CHG  3   1   1   9   1  37  -1
M  END
