5e0l_ligand
 OpenBabel08222323353D

161160  0  0  1  0  0  0  0  0999 V2000
  -29.3000   28.7300  -16.9050 N   0  3  0  0  0  0  0  0  0  0  0  0
  -28.1690   28.9410  -17.8070 C   0  0  2  0  0  0  0  0  0  0  0  0
  -27.2650   27.7130  -17.8010 C   0  0  0  0  0  0  0  0  0  0  0  0
  -26.9790   27.1490  -16.7360 O   0  0  0  0  0  0  0  0  0  0  0  0
  -27.3640   30.1760  -17.3940 C   0  0  0  0  0  0  0  0  0  0  0  0
  -28.2090   31.3350  -16.8980 C   0  0  0  0  0  0  0  0  0  0  0  0
  -27.3440   32.4960  -16.4070 C   0  0  0  0  0  0  0  0  0  0  0  0
  -27.0890   32.4370  -14.9010 C   0  0  0  0  0  0  0  0  0  0  0  0
  -28.3410   32.4160  -14.0830 N   0  3  0  0  0  0  0  0  0  0  0  0
  -26.8100   27.3070  -18.9880 N   0  0  0  0  0  0  0  0  0  0  0  0
  -26.0080   26.0890  -19.1370 C   0  0  2  0  0  0  0  0  0  0  0  0
  -24.7060   26.3540  -19.8860 C   0  0  0  0  0  0  0  0  0  0  0  0
  -24.6600   27.1350  -20.8300 O   0  0  0  0  0  0  0  0  0  0  0  0
  -26.8030   25.0130  -19.8540 C   0  0  0  0  0  0  0  0  0  0  0  0
  -23.6570   25.6600  -19.4670 N   0  0  0  0  0  0  0  0  0  0  0  0
  -22.3180   25.8380  -19.9980 C   0  0  2  0  0  0  0  0  0  0  0  0
  -21.7700   24.4740  -20.3800 C   0  0  0  0  0  0  0  0  0  0  0  0
  -21.8850   23.5470  -19.6100 O   0  0  0  0  0  0  0  0  0  0  0  0
  -21.3710   26.4250  -18.9290 C   0  0  2  0  0  0  0  0  0  0  0  0
  -21.9810   27.6330  -18.2270 C   0  0  0  0  0  0  0  0  0  0  0  0
  -20.0560   26.7660  -19.5620 C   0  0  0  0  0  0  0  0  0  0  0  0
  -21.0960   28.1580  -17.0930 C   0  0  0  0  0  0  0  0  0  0  0  0
  -21.1410   24.3670  -21.5470 N   0  0  0  0  0  0  0  0  0  0  0  0
  -20.3850   23.1730  -21.9140 C   0  0  2  0  0  0  0  0  0  0  0  0
  -19.0270   23.1850  -21.1900 C   0  0  0  0  0  0  0  0  0  0  0  0
  -18.4000   24.2410  -21.0380 O   0  0  0  0  0  0  0  0  0  0  0  0
  -20.1300   23.1250  -23.4320 C   0  0  0  0  0  0  0  0  0  0  0  0
  -21.3970   22.9580  -24.2540 C   0  0  0  0  0  0  0  0  0  0  0  0
  -22.4630   22.6090  -23.7100 O   0  5  0  0  0  0  0  0  0  0  0  0
  -21.3080   23.1770  -25.4890 O   0  0  0  0  0  0  0  0  0  0  0  0
  -18.5800   22.0160  -20.7560 N   0  0  0  0  0  0  0  0  0  0  0  0
  -17.2720   21.8490  -20.1480 C   0  0  2  0  0  0  0  0  0  0  0  0
  -16.6760   20.5230  -20.6210 C   0  0  0  0  0  0  0  0  0  0  0  0
  -17.3890   19.5480  -20.8180 O   0  0  0  0  0  0  0  0  0  0  0  0
  -17.3850   21.8700  -18.6060 C   0  0  0  0  0  0  0  0  0  0  0  0
  -15.3620   20.5270  -20.8150 N   0  0  0  0  0  0  0  0  0  0  0  0
  -14.5760   19.3610  -21.1790 C   0  0  2  0  0  0  0  0  0  0  0  0
  -13.5540   19.1000  -20.1010 C   0  0  0  0  0  0  0  0  0  0  0  0
  -13.0130   20.0310  -19.5020 O   0  0  0  0  0  0  0  0  0  0  0  0
  -13.8450   19.6010  -22.4290 C   0  0  0  0  0  0  0  0  0  0  0  0
  -13.3260   17.8240  -19.8460 N   0  0  0  0  0  0  0  0  0  0  0  0
  -12.2740   17.4030  -18.9210 C   0  0  2  0  0  0  0  0  0  0  0  0
  -11.4620   16.2830  -19.5420 C   0  0  0  0  0  0  0  0  0  0  0  0
  -11.9660   15.4980  -20.3550 O   0  0  0  0  0  0  0  0  0  0  0  0
  -12.8430   16.9350  -17.5320 C   0  0  2  0  0  0  0  0  0  0  0  0
  -13.4960   15.6670  -17.6390 O   0  0  0  0  0  0  0  0  0  0  0  0
  -13.8290   17.9390  -16.9350 C   0  0  0  0  0  0  0  0  0  0  0  0
  -10.2000   16.2060  -19.1570 N   0  0  0  0  0  0  0  0  0  0  0  0
   -9.3410   15.1060  -19.6270 C   0  0  2  0  0  0  0  0  0  0  0  0
   -8.3700   14.7620  -18.4870 C   0  0  0  0  0  0  0  0  0  0  0  0
   -7.6610   15.6370  -18.0120 O   0  0  0  0  0  0  0  0  0  0  0  0
   -8.5610   15.5430  -20.8510 C   0  0  0  0  0  0  0  0  0  0  0  0
   -7.6210   14.4780  -21.4000 C   0  0  0  0  0  0  0  0  0  0  0  0
   -8.3490   13.2330  -21.8070 C   0  0  0  0  0  0  0  0  0  0  0  0
   -9.2460   13.2830  -22.6310 O   0  0  0  0  0  0  0  0  0  0  0  0
   -7.9930   12.0850  -21.2040 N   0  0  0  0  0  0  0  0  0  0  0  0
   -8.3370   13.4820  -18.0960 N   0  0  0  0  0  0  0  0  0  0  0  0
   -7.3670   13.0110  -17.1020 C   0  0  2  0  0  0  0  0  0  0  0  0
   -5.9450   13.1370  -17.5690 C   0  0  0  0  0  0  0  0  0  0  0  0
   -5.6830   13.0860  -18.7830 O   0  0  0  0  0  0  0  0  0  0  0  0
   -7.5960   11.5350  -16.7370 C   0  0  2  0  0  0  0  0  0  0  0  0
   -7.6910   10.7310  -17.9340 O   0  0  0  0  0  0  0  0  0  0  0  0
   -8.8660   11.3800  -15.9240 C   0  0  0  0  0  0  0  0  0  0  0  0
   -5.0470   13.2630  -16.6200 N   0  0  0  0  0  0  0  0  0  0  0  0
   -3.6450   13.3550  -16.8830 C   0  0  2  0  0  0  0  0  0  0  0  0
   -3.1270   12.0320  -17.3410 C   0  0  0  0  0  0  0  0  0  0  0  0
   -2.2970   11.9820  -18.1910 O   0  0  0  0  0  0  0  0  0  0  0  0
   -2.8910   13.7980  -15.6410 C   0  0  0  0  0  0  0  0  0  0  0  0
   -3.6010   14.8270  -14.8030 C   0  0  0  0  0  0  0  0  0  0  0  0
   -3.2910   16.2400  -15.1530 C   0  0  0  0  0  0  0  0  0  0  0  0
   -2.1760   16.5320  -15.5860 O   0  5  0  0  0  0  0  0  0  0  0  0
   -4.1650   17.0720  -14.9570 O   0  0  0  0  0  0  0  0  0  0  0  0
   -3.6340   10.9500  -16.7960 N   0  0  0  0  0  0  0  0  0  0  0  0
   -3.2610    9.6200  -17.2390 C   0  0  2  0  0  0  0  0  0  0  0  0
   -4.3920    8.9640  -18.0570 C   0  0  0  0  0  0  0  0  0  0  0  0
   -5.3620    9.6490  -18.4330 O   0  5  0  0  0  0  0  0  0  0  0  0
   -2.9390    8.6850  -16.0840 C   0  0  0  0  0  0  0  0  0  0  0  0
   -1.9800    9.2500  -15.0770 C   0  0  0  0  0  0  0  0  0  0  0  0
   -0.6530    9.5910  -15.6800 C   0  0  0  0  0  0  0  0  0  0  0  0
    0.0040   10.5040  -15.1360 O   0  5  0  0  0  0  0  0  0  0  0  0
   -0.2920    8.9610  -16.6990 O   0  0  0  0  0  0  0  0  0  0  0  0
   -4.2430    7.7230  -18.2640 O   0  0  0  0  0  0  0  0  0  0  0  0
  -29.8932   29.5449  -16.9137 H   0  0  0  0  0  0  0  0  0  0  0  0
  -28.9590   28.5726  -15.9696 H   0  0  0  0  0  0  0  0  0  0  0  0
  -29.8277   27.9271  -17.2098 H   0  0  0  0  0  0  0  0  0  0  0  0
  -28.5546   29.0953  -18.8256 H   0  0  0  0  0  0  0  0  0  0  0  0
  -26.7871   30.5186  -18.2657 H   0  0  0  0  0  0  0  0  0  0  0  0
  -26.6735   29.8839  -16.5891 H   0  0  0  0  0  0  0  0  0  0  0  0
  -28.8412   30.9858  -16.0683 H   0  0  0  0  0  0  0  0  0  0  0  0
  -28.8469   31.6891  -17.7212 H   0  0  0  0  0  0  0  0  0  0  0  0
  -27.8552   33.4413  -16.6418 H   0  0  0  0  0  0  0  0  0  0  0  0
  -26.3771   32.4621  -16.9305 H   0  0  0  0  0  0  0  0  0  0  0  0
  -26.5000   33.3202  -14.6130 H   0  0  0  0  0  0  0  0  0  0  0  0
  -26.5143   31.5253  -14.6809 H   0  0  0  0  0  0  0  0  0  0  0  0
  -28.1024   32.3771  -13.1044 H   0  0  0  0  0  0  0  0  0  0  0  0
  -28.8887   31.6060  -14.3277 H   0  0  0  0  0  0  0  0  0  0  0  0
  -28.8757   33.2508  -14.2655 H   0  0  0  0  0  0  0  0  0  0  0  0
  -27.0226   27.8500  -19.8004 H   0  0  0  0  0  0  0  0  0  0  0  0
  -25.7560   25.7226  -18.1309 H   0  0  0  0  0  0  0  0  0  0  0  0
  -26.1859   24.1081  -19.9564 H   0  0  0  0  0  0  0  0  0  0  0  0
  -27.0923   25.3744  -20.8519 H   0  0  0  0  0  0  0  0  0  0  0  0
  -27.7068   24.7766  -19.2733 H   0  0  0  0  0  0  0  0  0  0  0  0
  -23.7954   24.9788  -18.7481 H   0  0  0  0  0  0  0  0  0  0  0  0
  -22.3511   26.5004  -20.8756 H   0  0  0  0  0  0  0  0  0  0  0  0
  -21.1946   25.6508  -18.1678 H   0  0  0  0  0  0  0  0  0  0  0  0
  -22.9562   27.3432  -17.8086 H   0  0  0  0  0  0  0  0  0  0  0  0
  -22.1227   28.4362  -18.9651 H   0  0  0  0  0  0  0  0  0  0  0  0
  -19.6456   25.8741  -20.0580 H   0  0  0  0  0  0  0  0  0  0  0  0
  -19.3546   27.1103  -18.7877 H   0  0  0  0  0  0  0  0  0  0  0  0
  -20.2026   27.5638  -20.3049 H   0  0  0  0  0  0  0  0  0  0  0  0
  -21.5803   29.0260  -16.6218 H   0  0  0  0  0  0  0  0  0  0  0  0
  -20.1192   28.4591  -17.4995 H   0  0  0  0  0  0  0  0  0  0  0  0
  -20.9527   27.3662  -16.3430 H   0  0  0  0  0  0  0  0  0  0  0  0
  -21.1873   25.1285  -22.1936 H   0  0  0  0  0  0  0  0  0  0  0  0
  -20.9544   22.2810  -21.6140 H   0  0  0  0  0  0  0  0  0  0  0  0
  -19.4617   22.2780  -23.6463 H   0  0  0  0  0  0  0  0  0  0  0  0
  -19.6409   24.0632  -23.7328 H   0  0  0  0  0  0  0  0  0  0  0  0
  -19.1690   21.2135  -20.8512 H   0  0  0  0  0  0  0  0  0  0  0  0
  -16.6176   22.6735  -20.4672 H   0  0  0  0  0  0  0  0  0  0  0  0
  -16.3861   21.7424  -18.1634 H   0  0  0  0  0  0  0  0  0  0  0  0
  -18.0400   21.0506  -18.2751 H   0  0  0  0  0  0  0  0  0  0  0  0
  -17.8092   22.8320  -18.2825 H   0  0  0  0  0  0  0  0  0  0  0  0
  -14.8790   21.3954  -20.7023 H   0  0  0  0  0  0  0  0  0  0  0  0
  -15.2386   18.4905  -21.2937 H   0  0  0  0  0  0  0  0  0  0  0  0
  -13.2569   18.7079  -22.6871 H   0  0  0  0  0  0  0  0  0  0  0  0
  -13.1699   20.4598  -22.2999 H   0  0  0  0  0  0  0  0  0  0  0  0
  -14.5603   19.8150  -23.2368 H   0  0  0  0  0  0  0  0  0  0  0  0
  -13.8863   17.1289  -20.2964 H   0  0  0  0  0  0  0  0  0  0  0  0
  -11.6105   18.2626  -18.7457 H   0  0  0  0  0  0  0  0  0  0  0  0
  -11.9940   16.8330  -16.8400 H   0  0  0  0  0  0  0  0  0  0  0  0
  -14.2166   15.7341  -18.2545 H   0  0  0  0  0  0  0  0  0  0  0  0
  -14.1945   17.5632  -15.9679 H   0  0  0  0  0  0  0  0  0  0  0  0
  -14.6782   18.0715  -17.6215 H   0  0  0  0  0  0  0  0  0  0  0  0
  -13.3239   18.9047  -16.7859 H   0  0  0  0  0  0  0  0  0  0  0  0
   -9.8256   16.8999  -18.5419 H   0  0  0  0  0  0  0  0  0  0  0  0
   -9.9558   14.2287  -19.8766 H   0  0  0  0  0  0  0  0  0  0  0  0
   -7.9633   16.4267  -20.5829 H   0  0  0  0  0  0  0  0  0  0  0  0
   -9.2783   15.8113  -21.6406 H   0  0  0  0  0  0  0  0  0  0  0  0
   -6.8861   14.2202  -20.6232 H   0  0  0  0  0  0  0  0  0  0  0  0
   -7.0988   14.8856  -22.2781 H   0  0  0  0  0  0  0  0  0  0  0  0
   -8.4525   11.2302  -21.4451 H   0  0  0  0  0  0  0  0  0  0  0  0
   -7.2687   12.0861  -20.5145 H   0  0  0  0  0  0  0  0  0  0  0  0
   -8.9878   12.8331  -18.4902 H   0  0  0  0  0  0  0  0  0  0  0  0
   -7.4934   13.6230  -16.1967 H   0  0  0  0  0  0  0  0  0  0  0  0
   -6.7437   11.1832  -16.1372 H   0  0  0  0  0  0  0  0  0  0  0  0
   -6.8842   10.8068  -18.4299 H   0  0  0  0  0  0  0  0  0  0  0  0
   -9.0132   10.3193  -15.6725 H   0  0  0  0  0  0  0  0  0  0  0  0
   -9.7236   11.7399  -16.5113 H   0  0  0  0  0  0  0  0  0  0  0  0
   -8.7828   11.9682  -14.9982 H   0  0  0  0  0  0  0  0  0  0  0  0
   -5.3577   13.2961  -15.6701 H   0  0  0  0  0  0  0  0  0  0  0  0
   -3.4828   14.0970  -17.6787 H   0  0  0  0  0  0  0  0  0  0  0  0
   -1.9273   14.2222  -15.9592 H   0  0  0  0  0  0  0  0  0  0  0  0
   -2.7126   12.9113  -15.0149 H   0  0  0  0  0  0  0  0  0  0  0  0
   -3.3197   14.6654  -13.7519 H   0  0  0  0  0  0  0  0  0  0  0  0
   -4.6842   14.6754  -14.9202 H   0  0  0  0  0  0  0  0  0  0  0  0
   -4.2969   11.0458  -16.0535 H   0  0  0  0  0  0  0  0  0  0  0  0
   -2.3685    9.7140  -17.8750 H   0  0  0  0  0  0  0  0  0  0  0  0
   -2.5004    7.7651  -16.4981 H   0  0  0  0  0  0  0  0  0  0  0  0
   -3.8784    8.4423  -15.5658 H   0  0  0  0  0  0  0  0  0  0  0  0
   -1.8255    8.5068  -14.2809 H   0  0  0  0  0  0  0  0  0  0  0  0
   -2.4172   10.1630  -14.6466 H   0  0  0  0  0  0  0  0  0  0  0  0
  1  2  1  0  0  0  0
  1 83  1  0  0  0  0
  1 84  1  0  0  0  0
  1 85  1  0  0  0  0
  2  3  1  0  0  0  0
  2  5  1  0  0  0  0
  2 86  1  6  0  0  0
  3  4  2  0  0  0  0
  3 10  1  0  0  0  0
  5  6  1  0  0  0  0
  5 87  1  0  0  0  0
  5 88  1  0  0  0  0
  6  7  1  0  0  0  0
  6 89  1  0  0  0  0
  6 90  1  0  0  0  0
  7  8  1  0  0  0  0
  7 91  1  0  0  0  0
  7 92  1  0  0  0  0
  8  9  1  0  0  0  0
  8 93  1  0  0  0  0
  8 94  1  0  0  0  0
  9 95  1  0  0  0  0
  9 96  1  0  0  0  0
  9 97  1  0  0  0  0
 10 11  1  0  0  0  0
 10 98  1  0  0  0  0
 11 12  1  0  0  0  0
 11 14  1  0  0  0  0
 11 99  1  1  0  0  0
 12 13  2  0  0  0  0
 12 15  1  0  0  0  0
 14100  1  0  0  0  0
 14101  1  0  0  0  0
 14102  1  0  0  0  0
 15 16  1  0  0  0  0
 15103  1  0  0  0  0
 16 17  1  0  0  0  0
 16 19  1  0  0  0  0
 16104  1  6  0  0  0
 17 18  2  0  0  0  0
 17 23  1  0  0  0  0
 19 20  1  0  0  0  0
 19 21  1  0  0  0  0
 19105  1  1  0  0  0
 20 22  1  0  0  0  0
 20106  1  0  0  0  0
 20107  1  0  0  0  0
 21108  1  0  0  0  0
 21109  1  0  0  0  0
 21110  1  0  0  0  0
 22111  1  0  0  0  0
 22112  1  0  0  0  0
 22113  1  0  0  0  0
 23 24  1  0  0  0  0
 23114  1  0  0  0  0
 24 25  1  0  0  0  0
 24 27  1  0  0  0  0
 24115  1  1  0  0  0
 25 26  2  0  0  0  0
 25 31  1  0  0  0  0
 27 28  1  0  0  0  0
 27116  1  0  0  0  0
 27117  1  0  0  0  0
 28 29  1  0  0  0  0
 28 30  2  0  0  0  0
 31 32  1  0  0  0  0
 31118  1  0  0  0  0
 32 33  1  0  0  0  0
 32 35  1  0  0  0  0
 32119  1  6  0  0  0
 33 34  2  0  0  0  0
 33 36  1  0  0  0  0
 35120  1  0  0  0  0
 35121  1  0  0  0  0
 35122  1  0  0  0  0
 36 37  1  0  0  0  0
 36123  1  0  0  0  0
 37 38  1  0  0  0  0
 37 40  1  0  0  0  0
 37124  1  6  0  0  0
 38 39  2  0  0  0  0
 38 41  1  0  0  0  0
 40125  1  0  0  0  0
 40126  1  0  0  0  0
 40127  1  0  0  0  0
 41 42  1  0  0  0  0
 41128  1  0  0  0  0
 42 43  1  0  0  0  0
 42 45  1  0  0  0  0
 42129  1  1  0  0  0
 43 44  2  0  0  0  0
 43 48  1  0  0  0  0
 45 46  1  0  0  0  0
 45 47  1  0  0  0  0
 45130  1  1  0  0  0
 46131  1  0  0  0  0
 47132  1  0  0  0  0
 47133  1  0  0  0  0
 47134  1  0  0  0  0
 48 49  1  0  0  0  0
 48135  1  0  0  0  0
 49 50  1  0  0  0  0
 49 52  1  0  0  0  0
 49136  1  6  0  0  0
 50 51  2  0  0  0  0
 50 57  1  0  0  0  0
 52 53  1  0  0  0  0
 52137  1  0  0  0  0
 52138  1  0  0  0  0
 53 54  1  0  0  0  0
 53139  1  0  0  0  0
 53140  1  0  0  0  0
 54 55  2  0  0  0  0
 54 56  1  0  0  0  0
 56141  1  0  0  0  0
 56142  1  0  0  0  0
 57 58  1  0  0  0  0
 57143  1  0  0  0  0
 58 59  1  0  0  0  0
 58 61  1  0  0  0  0
 58144  1  1  0  0  0
 59 60  2  0  0  0  0
 59 64  1  0  0  0  0
 61 62  1  0  0  0  0
 61 63  1  0  0  0  0
 61145  1  1  0  0  0
 62146  1  0  0  0  0
 63147  1  0  0  0  0
 63148  1  0  0  0  0
 63149  1  0  0  0  0
 64 65  1  0  0  0  0
 64150  1  0  0  0  0
 65 66  1  0  0  0  0
 65 68  1  0  0  0  0
 65151  1  6  0  0  0
 66 67  2  0  0  0  0
 66 73  1  0  0  0  0
 68 69  1  0  0  0  0
 68152  1  0  0  0  0
 68153  1  0  0  0  0
 69 70  1  0  0  0  0
 69154  1  0  0  0  0
 69155  1  0  0  0  0
 70 71  1  0  0  0  0
 70 72  2  0  0  0  0
 73 74  1  0  0  0  0
 73156  1  0  0  0  0
 74 75  1  0  0  0  0
 74 77  1  0  0  0  0
 74157  1  6  0  0  0
 75 76  1  0  0  0  0
 75 82  2  0  0  0  0
 77 78  1  0  0  0  0
 77158  1  0  0  0  0
 77159  1  0  0  0  0
 78 79  1  0  0  0  0
 78160  1  0  0  0  0
 78161  1  0  0  0  0
 79 80  1  0  0  0  0
 79 81  2  0  0  0  0
M  CHG  6   1   1   9   1  29  -1  71  -1  76  -1  80  -1
M  END
