5e1m_ligand
 OpenBabel08222323353D

106107  0  0  1  0  0  0  0  0999 V2000
    7.0220   35.8150  -16.2800 N   0  3  0  0  0  0  0  0  0  0  0  0
    6.5920   35.5080  -14.8960 C   0  0  2  0  0  0  0  0  0  0  0  0
    5.6710   34.3150  -14.9160 C   0  0  0  0  0  0  0  0  0  0  0  0
    5.2530   33.8740  -15.9980 O   0  0  0  0  0  0  0  0  0  0  0  0
    5.7830   36.7710  -14.5110 C   0  0  0  0  0  0  0  0  0  0  0  0
    5.1670   37.2090  -15.8080 C   0  0  0  0  0  0  0  0  0  0  0  0
    6.2380   36.9330  -16.8650 C   0  0  0  0  0  0  0  0  0  0  0  0
    5.2740   33.8120  -13.7380 N   0  0  0  0  0  0  0  0  0  0  0  0
    4.1160   32.9220  -13.7450 C   0  0  2  0  0  0  0  0  0  0  0  0
    2.9590   33.6130  -14.4520 C   0  0  0  0  0  0  0  0  0  0  0  0
    2.8610   34.8460  -14.3560 O   0  0  0  0  0  0  0  0  0  0  0  0
    3.7990   32.7310  -12.2430 C   0  0  0  0  0  0  0  0  0  0  0  0
    4.4020   33.8850  -11.5880 C   0  0  0  0  0  0  0  0  0  0  0  0
    5.6470   34.2310  -12.3750 C   0  0  0  0  0  0  0  0  0  0  0  0
    2.1560   32.8560  -15.1900 N   0  0  0  0  0  0  0  0  0  0  0  0
    1.0600   33.4440  -15.9800 C   0  0  2  0  0  0  0  0  0  0  0  0
   -0.0510   32.4830  -16.3540 C   0  0  0  0  0  0  0  0  0  0  0  0
    0.1480   31.2620  -16.4910 O   0  0  0  0  0  0  0  0  0  0  0  0
    1.6300   34.1270  -17.2500 C   0  0  0  0  0  0  0  0  0  0  0  0
    2.1690   33.1080  -18.2410 C   0  0  0  0  0  0  0  0  0  0  0  0
    2.6260   33.7290  -19.5600 C   0  0  0  0  0  0  0  0  0  0  0  0
    3.7350   34.7450  -19.3910 C   0  0  0  0  0  0  0  0  0  0  0  0
    4.3300   35.2140  -20.6750 N   0  3  0  0  0  0  0  0  0  0  0  0
   -1.2460   33.0600  -16.5370 N   0  0  0  0  0  0  0  0  0  0  0  0
   -2.4110   32.2970  -16.9490 C   0  0  2  0  0  0  0  0  0  0  0  0
   -2.1660   31.5980  -18.2970 C   0  0  0  0  0  0  0  0  0  0  0  0
   -1.5750   32.1730  -19.2190 O   0  0  0  0  0  0  0  0  0  0  0  0
   -3.6420   33.1990  -17.0200 C   0  0  0  0  0  0  0  0  0  0  0  0
   -4.9440   32.4680  -17.3330 C   0  0  0  0  0  0  0  0  0  0  0  0
   -6.0820   33.4600  -17.4950 C   0  0  0  0  0  0  0  0  0  0  0  0
   -6.3810   34.0440  -16.1970 N   0  0  0  0  0  0  0  0  0  0  0  0
   -7.2340   33.5490  -15.2990 C   0  0  0  0  0  3  0  0  0  0  0  0
   -7.9470   32.4570  -15.5470 N   0  0  0  0  0  0  0  0  0  0  0  0
   -7.3890   34.1780  -14.1410 N   0  0  0  0  0  0  0  0  0  0  0  0
   -2.5940   30.3470  -18.3800 N   0  0  0  0  0  0  0  0  0  0  0  0
   -2.5210   29.5660  -19.6130 C   0  0  2  0  0  0  0  0  0  0  0  0
   -3.4000   30.2770  -20.6290 C   0  0  0  0  0  0  0  0  0  0  0  0
   -4.5760   30.5390  -20.3700 O   0  0  0  0  0  0  0  0  0  0  0  0
   -2.9880   28.1090  -19.4200 C   0  0  2  0  0  0  0  0  0  0  0  0
   -2.0420   27.3710  -18.4690 C   0  0  0  0  0  0  0  0  0  0  0  0
   -3.0570   27.3480  -20.7460 C   0  0  0  0  0  0  0  0  0  0  0  0
   -2.5180   25.9890  -18.0700 C   0  0  0  0  0  0  0  0  0  0  0  0
   -2.8000   30.6520  -21.7540 N   0  0  0  0  0  0  0  0  0  0  0  0
   -3.5230   31.2850  -22.8590 C   0  0  2  0  0  0  0  0  0  0  0  0
   -4.5000   30.3150  -23.5010 C   0  0  0  0  0  0  0  0  0  0  0  0
   -4.2850   29.1070  -23.5000 O   0  5  0  0  0  0  0  0  0  0  0  0
   -2.5380   31.7800  -23.9060 C   0  0  0  0  0  0  0  0  0  0  0  0
   -5.5280   30.7470  -24.0330 O   0  0  0  0  0  0  0  0  0  0  0  0
    6.8956   34.9939  -16.8509 H   0  0  0  0  0  0  0  0  0  0  0  0
    7.9971   36.0704  -16.2699 H   0  0  0  0  0  0  0  0  0  0  0  0
    7.4441   35.3361  -14.2219 H   0  0  0  0  0  0  0  0  0  0  0  0
    6.4440   37.5521  -14.1073 H   0  0  0  0  0  0  0  0  0  0  0  0
    5.0067   36.5287  -13.7703 H   0  0  0  0  0  0  0  0  0  0  0  0
    4.9207   38.2806  -15.7772 H   0  0  0  0  0  0  0  0  0  0  0  0
    4.2563   36.6294  -16.0192 H   0  0  0  0  0  0  0  0  0  0  0  0
    5.7805   36.6350  -17.8199 H   0  0  0  0  0  0  0  0  0  0  0  0
    6.8722   37.8178  -17.0226 H   0  0  0  0  0  0  0  0  0  0  0  0
    4.3430   31.9626  -14.2328 H   0  0  0  0  0  0  0  0  0  0  0  0
    4.2428   31.7967  -11.8686 H   0  0  0  0  0  0  0  0  0  0  0  0
    2.7120   32.7138  -12.0751 H   0  0  0  0  0  0  0  0  0  0  0  0
    4.6669   33.6360  -10.5498 H   0  0  0  0  0  0  0  0  0  0  0  0
    3.7017   34.7333  -11.5944 H   0  0  0  0  0  0  0  0  0  0  0  0
    5.8599   35.3094  -12.3325 H   0  0  0  0  0  0  0  0  0  0  0  0
    6.5198   33.6702  -12.0092 H   0  0  0  0  0  0  0  0  0  0  0  0
    2.2979   31.8663  -15.2102 H   0  0  0  0  0  0  0  0  0  0  0  0
    0.6038   34.2264  -15.3557 H   0  0  0  0  0  0  0  0  0  0  0  0
    2.4454   34.8040  -16.9555 H   0  0  0  0  0  0  0  0  0  0  0  0
    0.8294   34.7059  -17.7336 H   0  0  0  0  0  0  0  0  0  0  0  0
    1.3757   32.3769  -18.4560 H   0  0  0  0  0  0  0  0  0  0  0  0
    3.0264   32.5943  -17.7817 H   0  0  0  0  0  0  0  0  0  0  0  0
    1.7644   34.2273  -20.0283 H   0  0  0  0  0  0  0  0  0  0  0  0
    2.9867   32.9248  -20.2181 H   0  0  0  0  0  0  0  0  0  0  0  0
    4.5328   34.2886  -18.7867 H   0  0  0  0  0  0  0  0  0  0  0  0
    3.3265   35.6176  -18.8602 H   0  0  0  0  0  0  0  0  0  0  0  0
    5.0574   35.8849  -20.4830 H   0  0  0  0  0  0  0  0  0  0  0  0
    3.6148   35.6460  -21.2388 H   0  0  0  0  0  0  0  0  0  0  0  0
    4.7202   34.4282  -21.1714 H   0  0  0  0  0  0  0  0  0  0  0  0
   -1.3385   34.0441  -16.3856 H   0  0  0  0  0  0  0  0  0  0  0  0
   -2.5974   31.5212  -16.1917 H   0  0  0  0  0  0  0  0  0  0  0  0
   -3.4726   33.9506  -17.8051 H   0  0  0  0  0  0  0  0  0  0  0  0
   -3.7556   33.7026  -16.0487 H   0  0  0  0  0  0  0  0  0  0  0  0
   -5.1793   31.7779  -16.5094 H   0  0  0  0  0  0  0  0  0  0  0  0
   -4.8244   31.8981  -18.2662 H   0  0  0  0  0  0  0  0  0  0  0  0
   -6.9721   32.9421  -17.8815 H   0  0  0  0  0  0  0  0  0  0  0  0
   -5.7848   34.2525  -18.1976 H   0  0  0  0  0  0  0  0  0  0  0  0
   -5.8914   34.9158  -15.9497 H   0  0  0  0  0  0  0  0  0  0  0  0
   -8.5989   32.0952  -14.8364 H   0  0  0  0  0  0  0  0  0  0  0  0
   -7.8483   31.9715  -16.4500 H   0  0  0  0  0  0  0  0  0  0  0  0
   -6.8409   35.0261  -13.9382 H   0  0  0  0  0  0  0  0  0  0  0  0
   -8.0574   33.8181  -13.4449 H   0  0  0  0  0  0  0  0  0  0  0  0
   -2.9835   29.9190  -17.5644 H   0  0  0  0  0  0  0  0  0  0  0  0
   -1.4809   29.5524  -19.9707 H   0  0  0  0  0  0  0  0  0  0  0  0
   -3.9943   28.1265  -18.9761 H   0  0  0  0  0  0  0  0  0  0  0  0
   -1.9302   27.9745  -17.5561 H   0  0  0  0  0  0  0  0  0  0  0  0
   -1.0648   27.2700  -18.9637 H   0  0  0  0  0  0  0  0  0  0  0  0
   -3.7353   27.8726  -21.4349 H   0  0  0  0  0  0  0  0  0  0  0  0
   -3.4330   26.3301  -20.5655 H   0  0  0  0  0  0  0  0  0  0  0  0
   -2.0523   27.2943  -21.1907 H   0  0  0  0  0  0  0  0  0  0  0  0
   -1.7848   25.5309  -17.3899 H   0  0  0  0  0  0  0  0  0  0  0  0
   -2.6246   25.3641  -18.9690 H   0  0  0  0  0  0  0  0  0  0  0  0
   -3.4901   26.0686  -17.5614 H   0  0  0  0  0  0  0  0  0  0  0  0
   -1.8169   30.4959  -21.8496 H   0  0  0  0  0  0  0  0  0  0  0  0
   -4.0862   32.1435  -22.4643 H   0  0  0  0  0  0  0  0  0  0  0  0
   -3.0884   32.2539  -24.7321 H   0  0  0  0  0  0  0  0  0  0  0  0
   -1.9562   30.9304  -24.2928 H   0  0  0  0  0  0  0  0  0  0  0  0
   -1.8568   32.5139  -23.4507 H   0  0  0  0  0  0  0  0  0  0  0  0
  1  2  1  0  0  0  0
  1  7  1  0  0  0  0
  1 49  1  0  0  0  0
  1 50  1  0  0  0  0
  2  3  1  0  0  0  0
  2  5  1  0  0  0  0
  2 51  1  1  0  0  0
  3  4  2  0  0  0  0
  3  8  1  0  0  0  0
  5  6  1  0  0  0  0
  5 52  1  0  0  0  0
  5 53  1  0  0  0  0
  6  7  1  0  0  0  0
  6 54  1  0  0  0  0
  6 55  1  0  0  0  0
  7 56  1  0  0  0  0
  7 57  1  0  0  0  0
  8  9  1  0  0  0  0
  8 14  1  0  0  0  0
  9 10  1  0  0  0  0
  9 12  1  0  0  0  0
  9 58  1  6  0  0  0
 10 11  2  0  0  0  0
 10 15  1  0  0  0  0
 12 13  1  0  0  0  0
 12 59  1  0  0  0  0
 12 60  1  0  0  0  0
 13 14  1  0  0  0  0
 13 61  1  0  0  0  0
 13 62  1  0  0  0  0
 14 63  1  0  0  0  0
 14 64  1  0  0  0  0
 15 16  1  0  0  0  0
 15 65  1  0  0  0  0
 16 17  1  0  0  0  0
 16 19  1  0  0  0  0
 16 66  1  1  0  0  0
 17 18  2  0  0  0  0
 17 24  1  0  0  0  0
 19 20  1  0  0  0  0
 19 67  1  0  0  0  0
 19 68  1  0  0  0  0
 20 21  1  0  0  0  0
 20 69  1  0  0  0  0
 20 70  1  0  0  0  0
 21 22  1  0  0  0  0
 21 71  1  0  0  0  0
 21 72  1  0  0  0  0
 22 23  1  0  0  0  0
 22 73  1  0  0  0  0
 22 74  1  0  0  0  0
 23 75  1  0  0  0  0
 23 76  1  0  0  0  0
 23 77  1  0  0  0  0
 24 25  1  0  0  0  0
 24 78  1  0  0  0  0
 25 26  1  0  0  0  0
 25 28  1  0  0  0  0
 25 79  1  1  0  0  0
 26 27  2  0  0  0  0
 26 35  1  0  0  0  0
 28 29  1  0  0  0  0
 28 80  1  0  0  0  0
 28 81  1  0  0  0  0
 29 30  1  0  0  0  0
 29 82  1  0  0  0  0
 29 83  1  0  0  0  0
 30 31  1  0  0  0  0
 30 84  1  0  0  0  0
 30 85  1  0  0  0  0
 31 32  1  0  0  0  0
 31 86  1  0  0  0  0
 32 33  1  0  0  0  0
 32 34  1  0  0  0  0
 33 87  1  0  0  0  0
 33 88  1  0  0  0  0
 34 89  1  0  0  0  0
 34 90  1  0  0  0  0
 35 36  1  0  0  0  0
 35 91  1  0  0  0  0
 36 37  1  0  0  0  0
 36 39  1  0  0  0  0
 36 92  1  6  0  0  0
 37 38  2  0  0  0  0
 37 43  1  0  0  0  0
 39 40  1  0  0  0  0
 39 41  1  0  0  0  0
 39 93  1  1  0  0  0
 40 42  1  0  0  0  0
 40 94  1  0  0  0  0
 40 95  1  0  0  0  0
 41 96  1  0  0  0  0
 41 97  1  0  0  0  0
 41 98  1  0  0  0  0
 42 99  1  0  0  0  0
 42100  1  0  0  0  0
 42101  1  0  0  0  0
 43 44  1  0  0  0  0
 43102  1  0  0  0  0
 44 45  1  0  0  0  0
 44 47  1  0  0  0  0
 44103  1  1  0  0  0
 45 46  1  0  0  0  0
 45 48  2  0  0  0  0
 47104  1  0  0  0  0
 47105  1  0  0  0  0
 47106  1  0  0  0  0
M  CHG  3   1   1  23   1  46  -1
M  END
