5e4w_ligand
 OpenBabel08222323353D

166165  0  0  1  0  0  0  0  0999 V2000
  -12.8140   54.7960  -29.6500 N   0  3  0  0  0  0  0  0  0  0  0  0
  -13.7310   53.8570  -29.0140 C   0  0  2  0  0  0  0  0  0  0  0  0
  -15.1780   54.3200  -29.1680 C   0  0  0  0  0  0  0  0  0  0  0  0
  -15.5600   54.8400  -30.2200 O   0  0  0  0  0  0  0  0  0  0  0  0
  -13.3890   53.6930  -27.5320 C   0  0  0  0  0  0  0  0  0  0  0  0
  -13.5740   52.2760  -27.0070 C   0  0  0  0  0  0  0  0  0  0  0  0
  -13.8050   52.2660  -25.5040 C   0  0  0  0  0  0  0  0  0  0  0  0
  -15.1270   52.9280  -25.1530 C   0  0  0  0  0  0  0  0  0  0  0  0
  -15.4230   52.8650  -23.6970 N   0  3  0  0  0  0  0  0  0  0  0  0
  -15.9780   54.1460  -28.1160 N   0  0  0  0  0  0  0  0  0  0  0  0
  -17.4000   54.4930  -28.1840 C   0  0  2  0  0  0  0  0  0  0  0  0
  -17.6890   55.9410  -27.8050 C   0  0  0  0  0  0  0  0  0  0  0  0
  -17.1040   56.5080  -26.8800 O   0  0  0  0  0  0  0  0  0  0  0  0
  -18.2360   53.5800  -27.2780 C   0  0  0  0  0  0  0  0  0  0  0  0
  -18.4250   52.1310  -27.7230 C   0  0  0  0  0  0  0  0  0  0  0  0
  -19.1830   51.3970  -26.6180 C   0  0  0  0  0  0  0  0  0  0  0  0
  -20.5040   50.8490  -26.9190 N   0  0  0  0  0  0  0  0  0  0  0  0
  -21.2430   50.2390  -25.9930 C   0  0  0  0  0  3  0  0  0  0  0  0
  -20.7700   50.1330  -24.7580 N   0  0  0  0  0  0  0  0  0  0  0  0
  -22.4390   49.7420  -26.2820 N   0  0  0  0  0  0  0  0  0  0  0  0
  -18.6300   56.5100  -28.5440 N   0  0  0  0  0  0  0  0  0  0  0  0
  -19.1330   57.8600  -28.3530 C   0  0  2  0  0  0  0  0  0  0  0  0
  -20.5840   57.8260  -27.8860 C   0  0  0  0  0  0  0  0  0  0  0  0
  -21.3070   56.8740  -28.1670 O   0  0  0  0  0  0  0  0  0  0  0  0
  -19.0010   58.6620  -29.6460 C   0  0  0  0  0  0  0  0  0  0  0  0
  -17.6920   58.5470  -30.1790 O   0  0  0  0  0  0  0  0  0  0  0  0
  -21.0240   58.8560  -27.1780 N   0  0  0  0  0  0  0  0  0  0  0  0
  -22.4000   58.8620  -26.6980 C   0  0  2  0  0  0  0  0  0  0  0  0
  -23.2490   59.7550  -27.5930 C   0  0  0  0  0  0  0  0  0  0  0  0
  -22.7390   60.6490  -28.2830 O   0  0  0  0  0  0  0  0  0  0  0  0
  -22.4980   59.3620  -25.2610 C   0  0  0  0  0  0  0  0  0  0  0  0
  -21.4300   58.8660  -24.3210 C   0  0  0  0  0  0  0  0  0  0  0  0
  -21.4670   59.7080  -23.0620 C   0  0  0  0  0  0  0  0  0  0  0  0
  -20.4650   59.2490  -22.0090 C   0  0  0  0  0  0  0  0  0  0  0  0
  -20.9380   59.4750  -20.6090 N   0  3  0  0  0  0  0  0  0  0  0  0
  -24.5510   59.4950  -27.5780 N   0  0  0  0  0  0  0  0  0  0  0  0
  -25.4760   60.2250  -28.4170 C   0  0  2  0  0  0  0  0  0  0  0  0
  -26.8780   60.2250  -27.8230 C   0  0  0  0  0  0  0  0  0  0  0  0
  -27.2990   59.2530  -27.1950 O   0  0  0  0  0  0  0  0  0  0  0  0
  -25.4770   59.6020  -29.8160 C   0  0  0  0  0  0  0  0  0  0  0  0
  -26.7070   59.8800  -30.6520 C   0  0  0  0  0  0  0  0  0  0  0  0
  -26.7270   58.9780  -31.8650 C   0  0  0  0  0  0  0  0  0  0  0  0
  -26.6450   57.5680  -31.4940 N   0  0  0  0  0  0  0  0  0  0  0  0
  -26.5870   56.5750  -32.3720 C   0  0  0  0  0  3  0  0  0  0  0  0
  -26.6020   56.8420  -33.6670 N   0  0  0  0  0  0  0  0  0  0  0  0
  -26.5160   55.3140  -31.9630 N   0  0  0  0  0  0  0  0  0  0  0  0
  -27.5930   61.3230  -28.0440 N   0  0  0  0  0  0  0  0  0  0  0  0
  -28.9580   61.4900  -27.5720 C   0  0  2  0  0  0  0  0  0  0  0  0
  -29.8720   60.4410  -28.2010 C   0  0  0  0  0  0  0  0  0  0  0  0
  -29.5840   59.9350  -29.2840 O   0  0  0  0  0  0  0  0  0  0  0  0
  -29.4500   62.9040  -27.8710 C   0  0  0  0  0  0  0  0  0  0  0  0
  -28.7860   63.9560  -26.9890 C   0  0  0  0  0  0  0  0  0  0  0  0
  -29.0800   65.3720  -27.4540 C   0  0  0  0  0  0  0  0  0  0  0  0
  -28.3260   66.3840  -26.6000 C   0  0  0  0  0  0  0  0  0  0  0  0
  -28.5050   67.7810  -27.0840 N   0  3  0  0  0  0  0  0  0  0  0  0
  -30.9760   60.1240  -27.5280 N   0  0  0  0  0  0  0  0  0  0  0  0
  -31.8120   58.9640  -27.8600 C   0  0  2  0  0  0  0  0  0  0  0  0
  -32.3630   58.9870  -29.3010 C   0  0  0  0  0  0  0  0  0  0  0  0
  -33.1090   58.0890  -29.7040 O   0  0  0  0  0  0  0  0  0  0  0  0
  -32.9680   58.8740  -26.8530 C   0  0  0  0  0  0  0  0  0  0  0  0
  -33.7540   57.5640  -26.8580 C   0  0  0  0  0  0  0  0  0  0  0  0
  -33.0880   56.5060  -25.9940 C   0  0  0  0  0  0  0  0  0  0  0  0
  -33.2630   56.7790  -24.5710 N   0  0  0  0  0  0  0  0  0  0  0  0
  -32.2840   56.7320  -23.6730 C   0  0  0  0  0  3  0  0  0  0  0  0
  -31.0510   56.4200  -24.0490 N   0  0  0  0  0  0  0  0  0  0  0  0
  -32.5380   56.9960  -22.3980 N   0  0  0  0  0  0  0  0  0  0  0  0
  -31.9920   60.0150  -30.0660 N   0  0  0  0  0  0  0  0  0  0  0  0
  -32.2980   60.1300  -31.4970 C   0  0  2  0  0  0  0  0  0  0  0  0
  -33.7870   60.3660  -31.7240 C   0  0  0  0  0  0  0  0  0  0  0  0
  -34.1830   60.9590  -32.7290 O   0  5  0  0  0  0  0  0  0  0  0  0
  -31.8460   58.8850  -32.3140 C   0  0  2  0  0  0  0  0  0  0  0  0
  -32.6250   57.7400  -31.9430 O   0  0  0  0  0  0  0  0  0  0  0  0
  -30.3680   58.5910  -32.0920 C   0  0  0  0  0  0  0  0  0  0  0  0
  -34.6180   59.9670  -30.9060 O   0  0  0  0  0  0  0  0  0  0  0  0
  -11.8669   54.4703  -29.5357 H   0  0  0  0  0  0  0  0  0  0  0  0
  -12.9113   55.7032  -29.2215 H   0  0  0  0  0  0  0  0  0  0  0  0
  -13.0299   54.8634  -30.6323 H   0  0  0  0  0  0  0  0  0  0  0  0
  -13.6236   52.8799  -29.5076 H   0  0  0  0  0  0  0  0  0  0  0  0
  -14.0380   54.3646  -26.9508 H   0  0  0  0  0  0  0  0  0  0  0  0
  -12.3377   53.9816  -27.3856 H   0  0  0  0  0  0  0  0  0  0  0  0
  -12.6714   51.6897  -27.2341 H   0  0  0  0  0  0  0  0  0  0  0  0
  -14.4423   51.8203  -27.5054 H   0  0  0  0  0  0  0  0  0  0  0  0
  -12.9872   52.8115  -25.0105 H   0  0  0  0  0  0  0  0  0  0  0  0
  -13.8183   51.2250  -25.1488 H   0  0  0  0  0  0  0  0  0  0  0  0
  -15.9337   52.4181  -25.6999 H   0  0  0  0  0  0  0  0  0  0  0  0
  -15.0861   53.9835  -25.4599 H   0  0  0  0  0  0  0  0  0  0  0  0
  -16.3061   53.3151  -23.5139 H   0  0  0  0  0  0  0  0  0  0  0  0
  -14.6934   53.3359  -23.1851 H   0  0  0  0  0  0  0  0  0  0  0  0
  -15.4702   51.9014  -23.4051 H   0  0  0  0  0  0  0  0  0  0  0  0
  -15.6021   53.7731  -27.2677 H   0  0  0  0  0  0  0  0  0  0  0  0
  -17.7260   54.3432  -29.2238 H   0  0  0  0  0  0  0  0  0  0  0  0
  -19.2355   54.0304  -27.1875 H   0  0  0  0  0  0  0  0  0  0  0  0
  -17.7514   53.5614  -26.2907 H   0  0  0  0  0  0  0  0  0  0  0  0
  -17.4449   51.6577  -27.8821 H   0  0  0  0  0  0  0  0  0  0  0  0
  -19.0036   52.0993  -28.6580 H   0  0  0  0  0  0  0  0  0  0  0  0
  -19.3081   52.1050  -25.7855 H   0  0  0  0  0  0  0  0  0  0  0  0
  -18.5504   50.5576  -26.2936 H   0  0  0  0  0  0  0  0  0  0  0  0
  -20.8750   50.9370  -27.8758 H   0  0  0  0  0  0  0  0  0  0  0  0
  -21.3290   49.6643  -24.0309 H   0  0  0  0  0  0  0  0  0  0  0  0
  -19.8437   50.5194  -24.5263 H   0  0  0  0  0  0  0  0  0  0  0  0
  -22.8120   49.8210  -27.2388 H   0  0  0  0  0  0  0  0  0  0  0  0
  -22.9943   49.2773  -25.5495 H   0  0  0  0  0  0  0  0  0  0  0  0
  -19.0233   55.9705  -29.2885 H   0  0  0  0  0  0  0  0  0  0  0  0
  -18.5290   58.3509  -27.5757 H   0  0  0  0  0  0  0  0  0  0  0  0
  -19.2133   59.7208  -29.4368 H   0  0  0  0  0  0  0  0  0  0  0  0
  -19.7246   58.2813  -30.3819 H   0  0  0  0  0  0  0  0  0  0  0  0
  -17.5057   57.6340  -30.3641 H   0  0  0  0  0  0  0  0  0  0  0  0
  -20.4163   59.6236  -26.9745 H   0  0  0  0  0  0  0  0  0  0  0  0
  -22.7899   57.8343  -26.7404 H   0  0  0  0  0  0  0  0  0  0  0  0
  -23.4730   59.0482  -24.8600 H   0  0  0  0  0  0  0  0  0  0  0  0
  -22.4462   60.4606  -25.2814 H   0  0  0  0  0  0  0  0  0  0  0  0
  -20.4436   58.9572  -24.7992 H   0  0  0  0  0  0  0  0  0  0  0  0
  -21.6189   57.8123  -24.0680 H   0  0  0  0  0  0  0  0  0  0  0  0
  -22.4779   59.6515  -22.6321 H   0  0  0  0  0  0  0  0  0  0  0  0
  -21.2405   60.7504  -23.3306 H   0  0  0  0  0  0  0  0  0  0  0  0
  -19.5260   59.8032  -22.1546 H   0  0  0  0  0  0  0  0  0  0  0  0
  -20.2811   58.1733  -22.1466 H   0  0  0  0  0  0  0  0  0  0  0  0
  -20.2361   59.1530  -19.9611 H   0  0  0  0  0  0  0  0  0  0  0  0
  -21.7943   58.9654  -20.4572 H   0  0  0  0  0  0  0  0  0  0  0  0
  -21.1024   60.4589  -20.4646 H   0  0  0  0  0  0  0  0  0  0  0  0
  -24.8998   58.7788  -26.9734 H   0  0  0  0  0  0  0  0  0  0  0  0
  -25.1337   61.2675  -28.4944 H   0  0  0  0  0  0  0  0  0  0  0  0
  -25.3843   58.5119  -29.7016 H   0  0  0  0  0  0  0  0  0  0  0  0
  -24.6029   59.9892  -30.3601 H   0  0  0  0  0  0  0  0  0  0  0  0
  -26.6941   60.9299  -30.9799 H   0  0  0  0  0  0  0  0  0  0  0  0
  -27.6071   59.6957  -30.0471 H   0  0  0  0  0  0  0  0  0  0  0  0
  -25.8702   59.2272  -32.5082 H   0  0  0  0  0  0  0  0  0  0  0  0
  -27.6624   59.1466  -32.4187 H   0  0  0  0  0  0  0  0  0  0  0  0
  -26.6314   57.3304  -30.4919 H   0  0  0  0  0  0  0  0  0  0  0  0
  -26.5571   56.0739  -34.3518 H   0  0  0  0  0  0  0  0  0  0  0  0
  -26.6586   57.8181  -33.9910 H   0  0  0  0  0  0  0  0  0  0  0  0
  -26.5039   55.0992  -30.9557 H   0  0  0  0  0  0  0  0  0  0  0  0
  -26.4730   54.5504  -32.6530 H   0  0  0  0  0  0  0  0  0  0  0  0
  -27.1724   62.0697  -28.5593 H   0  0  0  0  0  0  0  0  0  0  0  0
  -28.9686   61.3452  -26.4816 H   0  0  0  0  0  0  0  0  0  0  0  0
  -30.5368   62.9410  -27.7055 H   0  0  0  0  0  0  0  0  0  0  0  0
  -29.2311   63.1378  -28.9233 H   0  0  0  0  0  0  0  0  0  0  0  0
  -27.6977   63.7969  -27.0080 H   0  0  0  0  0  0  0  0  0  0  0  0
  -29.1559   63.8384  -25.9598 H   0  0  0  0  0  0  0  0  0  0  0  0
  -30.1602   65.5628  -27.3714 H   0  0  0  0  0  0  0  0  0  0  0  0
  -28.7676   65.4803  -28.5031 H   0  0  0  0  0  0  0  0  0  0  0  0
  -27.2544   66.1369  -26.6230 H   0  0  0  0  0  0  0  0  0  0  0  0
  -28.6953   66.3184  -25.5659 H   0  0  0  0  0  0  0  0  0  0  0  0
  -27.9896   68.4111  -26.4896 H   0  0  0  0  0  0  0  0  0  0  0  0
  -29.4835   68.0219  -27.0606 H   0  0  0  0  0  0  0  0  0  0  0  0
  -28.1630   67.8555  -28.0293 H   0  0  0  0  0  0  0  0  0  0  0  0
  -31.2487   60.7035  -26.7600 H   0  0  0  0  0  0  0  0  0  0  0  0
  -31.1901   58.0625  -27.7576 H   0  0  0  0  0  0  0  0  0  0  0  0
  -33.6716   59.6904  -27.0730 H   0  0  0  0  0  0  0  0  0  0  0  0
  -32.5493   59.0124  -25.8453 H   0  0  0  0  0  0  0  0  0  0  0  0
  -33.8194   57.1914  -27.8909 H   0  0  0  0  0  0  0  0  0  0  0  0
  -34.7663   57.7541  -26.4719 H   0  0  0  0  0  0  0  0  0  0  0  0
  -32.0123   56.4850  -26.2227 H   0  0  0  0  0  0  0  0  0  0  0  0
  -33.5314   55.5263  -26.2257 H   0  0  0  0  0  0  0  0  0  0  0  0
  -34.2073   57.0242  -24.2408 H   0  0  0  0  0  0  0  0  0  0  0  0
  -30.2936   56.3840  -23.3519 H   0  0  0  0  0  0  0  0  0  0  0  0
  -30.8509   56.2137  -25.0381 H   0  0  0  0  0  0  0  0  0  0  0  0
  -33.4946   57.2386  -22.1030 H   0  0  0  0  0  0  0  0  0  0  0  0
  -31.7787   56.9584  -21.7031 H   0  0  0  0  0  0  0  0  0  0  0  0
  -31.4725   60.7542  -29.6374 H   0  0  0  0  0  0  0  0  0  0  0  0
  -31.7499   61.0024  -31.8823 H   0  0  0  0  0  0  0  0  0  0  0  0
  -32.0063   59.0916  -33.3824 H   0  0  0  0  0  0  0  0  0  0  0  0
  -32.5068   57.5646  -31.0168 H   0  0  0  0  0  0  0  0  0  0  0  0
  -30.0774   57.7082  -32.6804 H   0  0  0  0  0  0  0  0  0  0  0  0
  -30.1894   58.3951  -31.0244 H   0  0  0  0  0  0  0  0  0  0  0  0
  -29.7699   59.4573  -32.4109 H   0  0  0  0  0  0  0  0  0  0  0  0
  1  2  1  0  0  0  0
  1 75  1  0  0  0  0
  1 76  1  0  0  0  0
  1 77  1  0  0  0  0
  2  3  1  0  0  0  0
  2  5  1  0  0  0  0
  2 78  1  6  0  0  0
  3  4  2  0  0  0  0
  3 10  1  0  0  0  0
  5  6  1  0  0  0  0
  5 79  1  0  0  0  0
  5 80  1  0  0  0  0
  6  7  1  0  0  0  0
  6 81  1  0  0  0  0
  6 82  1  0  0  0  0
  7  8  1  0  0  0  0
  7 83  1  0  0  0  0
  7 84  1  0  0  0  0
  8  9  1  0  0  0  0
  8 85  1  0  0  0  0
  8 86  1  0  0  0  0
  9 87  1  0  0  0  0
  9 88  1  0  0  0  0
  9 89  1  0  0  0  0
 10 11  1  0  0  0  0
 10 90  1  0  0  0  0
 11 12  1  0  0  0  0
 11 14  1  0  0  0  0
 11 91  1  6  0  0  0
 12 13  2  0  0  0  0
 12 21  1  0  0  0  0
 14 15  1  0  0  0  0
 14 92  1  0  0  0  0
 14 93  1  0  0  0  0
 15 16  1  0  0  0  0
 15 94  1  0  0  0  0
 15 95  1  0  0  0  0
 16 17  1  0  0  0  0
 16 96  1  0  0  0  0
 16 97  1  0  0  0  0
 17 18  1  0  0  0  0
 17 98  1  0  0  0  0
 18 19  1  0  0  0  0
 18 20  1  0  0  0  0
 19 99  1  0  0  0  0
 19100  1  0  0  0  0
 20101  1  0  0  0  0
 20102  1  0  0  0  0
 21 22  1  0  0  0  0
 21103  1  0  0  0  0
 22 23  1  0  0  0  0
 22 25  1  0  0  0  0
 22104  1  1  0  0  0
 23 24  2  0  0  0  0
 23 27  1  0  0  0  0
 25 26  1  0  0  0  0
 25105  1  0  0  0  0
 25106  1  0  0  0  0
 26107  1  0  0  0  0
 27 28  1  0  0  0  0
 27108  1  0  0  0  0
 28 29  1  0  0  0  0
 28 31  1  0  0  0  0
 28109  1  6  0  0  0
 29 30  2  0  0  0  0
 29 36  1  0  0  0  0
 31 32  1  0  0  0  0
 31110  1  0  0  0  0
 31111  1  0  0  0  0
 32 33  1  0  0  0  0
 32112  1  0  0  0  0
 32113  1  0  0  0  0
 33 34  1  0  0  0  0
 33114  1  0  0  0  0
 33115  1  0  0  0  0
 34 35  1  0  0  0  0
 34116  1  0  0  0  0
 34117  1  0  0  0  0
 35118  1  0  0  0  0
 35119  1  0  0  0  0
 35120  1  0  0  0  0
 36 37  1  0  0  0  0
 36121  1  0  0  0  0
 37 38  1  0  0  0  0
 37 40  1  0  0  0  0
 37122  1  6  0  0  0
 38 39  2  0  0  0  0
 38 47  1  0  0  0  0
 40 41  1  0  0  0  0
 40123  1  0  0  0  0
 40124  1  0  0  0  0
 41 42  1  0  0  0  0
 41125  1  0  0  0  0
 41126  1  0  0  0  0
 42 43  1  0  0  0  0
 42127  1  0  0  0  0
 42128  1  0  0  0  0
 43 44  1  0  0  0  0
 43129  1  0  0  0  0
 44 45  1  0  0  0  0
 44 46  1  0  0  0  0
 45130  1  0  0  0  0
 45131  1  0  0  0  0
 46132  1  0  0  0  0
 46133  1  0  0  0  0
 47 48  1  0  0  0  0
 47134  1  0  0  0  0
 48 49  1  0  0  0  0
 48 51  1  0  0  0  0
 48135  1  1  0  0  0
 49 50  2  0  0  0  0
 49 56  1  0  0  0  0
 51 52  1  0  0  0  0
 51136  1  0  0  0  0
 51137  1  0  0  0  0
 52 53  1  0  0  0  0
 52138  1  0  0  0  0
 52139  1  0  0  0  0
 53 54  1  0  0  0  0
 53140  1  0  0  0  0
 53141  1  0  0  0  0
 54 55  1  0  0  0  0
 54142  1  0  0  0  0
 54143  1  0  0  0  0
 55144  1  0  0  0  0
 55145  1  0  0  0  0
 55146  1  0  0  0  0
 56 57  1  0  0  0  0
 56147  1  0  0  0  0
 57 58  1  0  0  0  0
 57 60  1  0  0  0  0
 57148  1  1  0  0  0
 58 59  2  0  0  0  0
 58 67  1  0  0  0  0
 60 61  1  0  0  0  0
 60149  1  0  0  0  0
 60150  1  0  0  0  0
 61 62  1  0  0  0  0
 61151  1  0  0  0  0
 61152  1  0  0  0  0
 62 63  1  0  0  0  0
 62153  1  0  0  0  0
 62154  1  0  0  0  0
 63 64  1  0  0  0  0
 63155  1  0  0  0  0
 64 65  1  0  0  0  0
 64 66  1  0  0  0  0
 65156  1  0  0  0  0
 65157  1  0  0  0  0
 66158  1  0  0  0  0
 66159  1  0  0  0  0
 67 68  1  0  0  0  0
 67160  1  0  0  0  0
 68 69  1  0  0  0  0
 68 71  1  0  0  0  0
 68161  1  6  0  0  0
 69 70  1  0  0  0  0
 69 74  2  0  0  0  0
 71 72  1  0  0  0  0
 71 73  1  0  0  0  0
 71162  1  6  0  0  0
 72163  1  0  0  0  0
 73164  1  0  0  0  0
 73165  1  0  0  0  0
 73166  1  0  0  0  0
M  CHG  5   1   1   9   1  35   1  55   1  70  -1
M  END
