5ea3_ligand
 OpenBabel08222323353D

 63 66  0  0  1  0  0  0  0  0999 V2000
   23.7380   16.9200   23.8690 C   0  0  0  0  0  0  0  0  0  0  0  0
   16.0940   21.3660   22.0180 C   0  0  0  0  0  0  0  0  0  0  0  0
   18.4620   22.2800   22.0340 C   0  0  0  0  0  0  0  0  0  0  0  0
   24.4820   22.6560   22.9280 C   0  0  0  0  0  0  0  0  0  0  0  0
   24.4060   22.7950   24.4370 C   0  0  0  0  0  0  0  0  0  0  0  0
   23.0650   24.5960   22.6560 C   0  0  0  0  0  0  0  0  0  0  0  0
   25.7900   25.6650   25.9680 C   0  0  0  0  0  0  0  0  0  0  0  0
   15.5060   19.2440   20.5270 C   0  0  0  0  0  0  0  0  0  0  0  0
   22.7430   17.2390   22.7210 C   0  0  2  0  0  0  0  0  0  0  0  0
   22.1900   16.1330   21.8450 C   0  0  0  0  0  0  0  0  0  0  0  0
   21.2370   16.4610   20.7480 C   0  0  0  0  0  0  0  0  0  0  0  0
   20.8370   17.8940   20.5200 C   0  0  0  0  0  0  0  0  0  0  0  0
   22.3190   18.7230   22.4710 C   0  0  0  0  0  0  0  0  0  0  0  0
   21.4260   19.0310   21.4390 C   0  0  0  0  0  0  0  0  0  0  0  0
   21.2240   20.3960   21.4510 N   0  0  0  0  0  0  0  0  0  0  0  0
   21.9980   20.9470   22.4860 C   0  0  0  0  0  0  0  0  0  0  0  0
   22.6700   19.9020   23.1110 N   0  0  0  0  0  0  0  0  0  0  0  0
   20.3670   21.1200   20.5300 C   0  0  0  0  0  0  0  0  0  0  0  0
   18.8930   21.1840   21.0420 C   0  0  0  0  0  0  0  0  0  0  0  0
   17.9210   20.2170   20.5650 N   0  0  0  0  0  0  0  0  0  0  0  0
   16.5260   20.2740   21.0310 C   0  0  0  0  0  0  0  0  0  0  0  0
   17.0700   22.3470   22.4980 C   0  0  0  0  0  0  0  0  0  0  0  0
   22.0880   22.3670   22.8470 N   0  0  0  0  0  0  0  0  0  0  0  0
   23.2430   23.1760   22.3240 C   0  0  2  0  0  0  0  0  0  0  0  0
   24.2650   24.1830   24.8640 N   0  3  2  0  0  0  0  0  0  0  0  0
   23.1820   24.8970   24.1370 C   0  0  0  0  0  0  0  0  0  0  0  0
   25.4670   24.8550   24.6920 C   0  0  0  0  0  0  0  0  0  0  0  0
   25.7140   24.8170   27.1340 N   0  3  0  0  0  0  0  0  0  0  0  0
   19.3910   23.2160   22.4840 O   0  0  0  0  0  0  0  0  0  0  0  0
   23.9243   15.8364   23.9022 H   0  0  0  0  0  0  0  0  0  0  0  0
   23.3093   17.2479   24.8275 H   0  0  0  0  0  0  0  0  0  0  0  0
   24.6855   17.4496   23.6908 H   0  0  0  0  0  0  0  0  0  0  0  0
   15.0664   21.4116   22.3602 H   0  0  0  0  0  0  0  0  0  0  0  0
   24.6019   21.5951   22.6630 H   0  0  0  0  0  0  0  0  0  0  0  0
   25.3422   23.2279   22.5499 H   0  0  0  0  0  0  0  0  0  0  0  0
   25.3265   22.3827   24.8760 H   0  0  0  0  0  0  0  0  0  0  0  0
   23.5388   22.2243   24.8006 H   0  0  0  0  0  0  0  0  0  0  0  0
   22.0668   24.9092   22.3162 H   0  0  0  0  0  0  0  0  0  0  0  0
   23.8326   25.1758   22.1225 H   0  0  0  0  0  0  0  0  0  0  0  0
   25.0654   26.4864   26.0692 H   0  0  0  0  0  0  0  0  0  0  0  0
   26.8056   26.0798   25.8869 H   0  0  0  0  0  0  0  0  0  0  0  0
   15.9999   18.5483   19.8328 H   0  0  0  0  0  0  0  0  0  0  0  0
   14.6879   19.7628   20.0059 H   0  0  0  0  0  0  0  0  0  0  0  0
   15.0992   18.6826   21.3810 H   0  0  0  0  0  0  0  0  0  0  0  0
   21.8987   17.1098   23.4142 H   0  0  0  0  0  0  0  0  0  0  0  0
   22.4888   15.1000   22.0171 H   0  0  0  0  0  0  0  0  0  0  0  0
   20.8333   15.6709   20.1166 H   0  0  0  0  0  0  0  0  0  0  0  0
   19.7426   17.9385   20.6214 H   0  0  0  0  0  0  0  0  0  0  0  0
   21.1199   18.1424   19.4864 H   0  0  0  0  0  0  0  0  0  0  0  0
   20.3837   20.6130   19.5540 H   0  0  0  0  0  0  0  0  0  0  0  0
   20.7501   22.1450   20.4173 H   0  0  0  0  0  0  0  0  0  0  0  0
   16.7658   23.1205   23.1939 H   0  0  0  0  0  0  0  0  0  0  0  0
   21.3730   22.8015   23.4477 H   0  0  0  0  0  0  0  0  0  0  0  0
   23.2978   23.0693   21.2306 H   0  0  0  0  0  0  0  0  0  0  0  0
   24.0348   24.1845   25.8454 H   0  0  0  0  0  0  0  0  0  0  0  0
   22.2259   24.6303   24.6112 H   0  0  0  0  0  0  0  0  0  0  0  0
   23.3577   25.9772   24.2480 H   0  0  0  0  0  0  0  0  0  0  0  0
   26.2707   24.1274   24.5060 H   0  0  0  0  0  0  0  0  0  0  0  0
   25.3856   25.5387   23.8342 H   0  0  0  0  0  0  0  0  0  0  0  0
   25.9267   25.3581   27.9574 H   0  0  0  0  0  0  0  0  0  0  0  0
   26.3784   24.0641   27.0458 H   0  0  0  0  0  0  0  0  0  0  0  0
   24.7838   24.4368   27.2129 H   0  0  0  0  0  0  0  0  0  0  0  0
   20.2373   23.0340   22.0925 H   0  0  0  0  0  0  0  0  0  0  0  0
  1 30  1  0  0  0  0
  1 31  1  0  0  0  0
  1 32  1  0  0  0  0
  2 33  1  0  0  0  0
  3 22  2  0  0  0  0
  3 29  1  0  0  0  0
  4 24  1  0  0  0  0
  4 34  1  0  0  0  0
  4 35  1  0  0  0  0
  5  4  1  0  0  0  0
  5 36  1  0  0  0  0
  5 37  1  0  0  0  0
  6 24  1  0  0  0  0
  6 38  1  0  0  0  0
  6 39  1  0  0  0  0
  7 28  1  0  0  0  0
  7 40  1  0  0  0  0
  7 41  1  0  0  0  0
  8 42  1  0  0  0  0
  8 43  1  0  0  0  0
  8 44  1  0  0  0  0
  9  1  1  0  0  0  0
  9 10  1  0  0  0  0
  9 45  1  1  0  0  0
 10 11  2  0  0  0  0
 10 46  1  0  0  0  0
 11 47  1  0  0  0  0
 12 11  1  0  0  0  0
 12 48  1  0  0  0  0
 12 49  1  0  0  0  0
 13  9  1  0  0  0  0
 13 14  2  0  0  0  0
 14 12  1  0  0  0  0
 15 14  1  0  0  0  0
 15 18  1  0  0  0  0
 16 15  1  0  0  0  0
 16 17  2  0  0  0  0
 17 13  1  0  0  0  0
 18 19  1  0  0  0  0
 18 50  1  0  0  0  0
 18 51  1  0  0  0  0
 19  3  1  0  0  0  0
 19 20  2  0  0  0  0
 20 21  1  0  0  0  0
 21  2  2  0  0  0  0
 21  8  1  0  0  0  0
 22  2  1  0  0  0  0
 22 52  1  0  0  0  0
 23 16  1  0  0  0  0
 23 53  1  0  0  0  0
 24 23  1  0  0  0  0
 24 54  1  6  0  0  0
 25  5  1  0  0  0  0
 25 26  1  0  0  0  0
 25 27  1  0  0  0  0
 25 55  1  1  0  0  0
 26  6  1  0  0  0  0
 26 56  1  0  0  0  0
 26 57  1  0  0  0  0
 27  7  1  0  0  0  0
 27 58  1  0  0  0  0
 27 59  1  0  0  0  0
 28 60  1  0  0  0  0
 28 61  1  0  0  0  0
 28 62  1  0  0  0  0
 29 63  1  0  0  0  0
M  CHG  2  25   1  28   1
M  END
