5ea4_ligand
 OpenBabel08222323353D

 60 64  0  0  0  0  0  0  0  0999 V2000
   19.9050   19.7670   18.3790 C   0  0  0  0  0  0  0  0  0  0  0  0
   19.2820   14.7200   18.1510 C   0  0  0  0  0  0  0  0  0  0  0  0
   17.9550   14.5420   17.4270 C   0  0  0  0  0  0  0  0  0  0  0  0
   20.7350   15.4860   20.9640 C   0  0  0  0  0  0  0  0  0  0  0  0
   21.1150   18.4290   21.1530 C   0  0  0  0  0  0  0  0  0  0  0  0
   16.2070   18.2800   19.1480 C   0  0  0  0  0  0  0  0  0  0  0  0
   15.5270   22.1100   22.2840 C   0  0  0  0  0  0  0  0  0  0  0  0
   19.4050   17.3020   17.8730 C   0  0  0  0  0  0  0  0  0  0  0  0
   19.9210   18.3670   18.7000 N   0  0  0  0  0  0  0  0  0  0  0  0
   19.6230   16.0550   18.5760 N   0  0  0  0  0  0  0  0  0  0  0  0
   19.0010   20.4270   19.4210 C   0  0  0  0  0  0  0  0  0  0  0  0
   19.3960   21.2270   20.4610 N   0  0  0  0  0  0  0  0  0  0  0  0
   20.4490   17.7900   19.9170 C   0  0  0  0  0  0  0  0  0  0  0  0
   20.2660   16.3640   19.8400 C   0  0  0  0  0  0  0  0  0  0  0  0
   17.6260   20.2920   19.4630 N   0  0  0  0  0  0  0  0  0  0  0  0
   18.2810   21.5990   21.1500 C   0  0  0  0  0  0  0  0  0  0  0  0
   17.1770   21.0130   20.5290 C   0  0  0  0  0  0  0  0  0  0  0  0
   14.2720   16.3750   18.9290 S   0  0  0  0  0  0  0  0  0  0  0  0
   19.2670   14.4210   16.6590 C   0  0  0  0  0  0  0  0  0  0  0  0
   18.0860   22.5010   22.4110 C   0  0  0  0  0  0  0  0  0  0  0  0
   18.8840   17.4580   16.7790 O   0  0  0  0  0  0  0  0  0  0  0  0
   15.7250   21.2500   21.0690 C   0  0  0  0  0  0  0  0  0  0  0  0
   13.7130   16.6980   20.2200 O   0  0  0  0  0  0  0  0  0  0  0  0
   15.2300   15.3490   19.2600 O   0  0  0  0  0  0  0  0  0  0  0  0
   21.5780   17.5740   22.2640 N   0  3  0  0  0  0  0  0  0  0  0  0
   16.7040   22.7280   22.9440 C   0  0  0  0  0  0  0  0  0  0  0  0
   16.8300   19.5340   18.5190 C   0  0  0  0  0  0  0  0  0  0  0  0
   15.0770   17.8010   18.2110 C   0  0  0  0  0  0  0  0  0  0  0  0
   13.0180   15.7880   17.7960 C   0  0  0  0  0  0  0  0  0  0  0  0
   16.4710   23.8240   24.4900 Br  0  0  0  0  0  0  0  0  0  0  0  0
   21.3950   16.1070   22.1900 C   0  0  0  0  0  0  0  0  0  0  0  0
   19.5004   19.9229   17.3681 H   0  0  0  0  0  0  0  0  0  0  0  0
   20.9213   20.1839   18.4355 H   0  0  0  0  0  0  0  0  0  0  0  0
   19.6438   13.9738   18.8737 H   0  0  0  0  0  0  0  0  0  0  0  0
   17.2982   15.4086   17.2610 H   0  0  0  0  0  0  0  0  0  0  0  0
   17.3421   13.6478   17.6134 H   0  0  0  0  0  0  0  0  0  0  0  0
   21.4620   14.7810   20.5346 H   0  0  0  0  0  0  0  0  0  0  0  0
   19.8551   14.9321   21.3231 H   0  0  0  0  0  0  0  0  0  0  0  0
   20.3862   19.1351   21.5776 H   0  0  0  0  0  0  0  0  0  0  0  0
   21.9936   18.9826   20.7903 H   0  0  0  0  0  0  0  0  0  0  0  0
   15.7954   18.5222   20.1389 H   0  0  0  0  0  0  0  0  0  0  0  0
   16.9689   17.4931   19.2497 H   0  0  0  0  0  0  0  0  0  0  0  0
   14.5261   22.2792   22.6784 H   0  0  0  0  0  0  0  0  0  0  0  0
   19.6006   13.4395   16.2912 H   0  0  0  0  0  0  0  0  0  0  0  0
   19.5567   15.2003   15.9388 H   0  0  0  0  0  0  0  0  0  0  0  0
   18.5016   23.4895   22.1658 H   0  0  0  0  0  0  0  0  0  0  0  0
   18.6728   22.0478   23.2236 H   0  0  0  0  0  0  0  0  0  0  0  0
   15.1494   21.7100   20.2523 H   0  0  0  0  0  0  0  0  0  0  0  0
   15.3037   20.2612   21.3029 H   0  0  0  0  0  0  0  0  0  0  0  0
   21.0967   17.8865   23.0927 H   0  0  0  0  0  0  0  0  0  0  0  0
   22.5669   17.7397   22.3671 H   0  0  0  0  0  0  0  0  0  0  0  0
   16.0219   20.1781   18.1421 H   0  0  0  0  0  0  0  0  0  0  0  0
   17.4740   19.2260   17.6821 H   0  0  0  0  0  0  0  0  0  0  0  0
   15.5018   17.5288   17.2335 H   0  0  0  0  0  0  0  0  0  0  0  0
   14.3424   18.6091   18.0794 H   0  0  0  0  0  0  0  0  0  0  0  0
   12.3134   16.6032   17.5745 H   0  0  0  0  0  0  0  0  0  0  0  0
   12.4747   14.9480   18.2534 H   0  0  0  0  0  0  0  0  0  0  0  0
   13.4948   15.4520   16.8634 H   0  0  0  0  0  0  0  0  0  0  0  0
   22.3950   15.6568   22.2757 H   0  0  0  0  0  0  0  0  0  0  0  0
   20.7869   15.8178   23.0598 H   0  0  0  0  0  0  0  0  0  0  0  0
  1  9  1  0  0  0  0
  1 32  1  0  0  0  0
  1 33  1  0  0  0  0
  2  3  1  0  0  0  0
  2 19  1  0  0  0  0
  2 34  1  0  0  0  0
  3 35  1  0  0  0  0
  3 36  1  0  0  0  0
  4 31  1  0  0  0  0
  4 37  1  0  0  0  0
  4 38  1  0  0  0  0
  5 25  1  0  0  0  0
  5 39  1  0  0  0  0
  5 40  1  0  0  0  0
  6 27  1  0  0  0  0
  6 41  1  0  0  0  0
  6 42  1  0  0  0  0
  7 26  2  0  0  0  0
  7 43  1  0  0  0  0
  8 10  1  0  0  0  0
  8 21  2  0  0  0  0
  9  8  1  0  0  0  0
  9 13  1  0  0  0  0
 10  2  1  0  0  0  0
 11  1  1  0  0  0  0
 11 12  2  0  0  0  0
 13  5  1  0  0  0  0
 13 14  2  0  0  0  0
 14  4  1  0  0  0  0
 14 10  1  0  0  0  0
 15 11  1  0  0  0  0
 15 17  1  0  0  0  0
 16 12  1  0  0  0  0
 16 20  1  0  0  0  0
 17 16  2  0  0  0  0
 17 22  1  0  0  0  0
 18 23  2  0  0  0  0
 18 24  2  0  0  0  0
 18 28  1  0  0  0  0
 18 29  1  0  0  0  0
 19  3  1  0  0  0  0
 19 44  1  0  0  0  0
 19 45  1  0  0  0  0
 20 26  1  0  0  0  0
 20 46  1  0  0  0  0
 20 47  1  0  0  0  0
 22  7  1  0  0  0  0
 22 48  1  0  0  0  0
 22 49  1  0  0  0  0
 25 31  1  0  0  0  0
 25 50  1  0  0  0  0
 25 51  1  0  0  0  0
 26 30  1  0  0  0  0
 27 15  1  0  0  0  0
 27 52  1  0  0  0  0
 27 53  1  0  0  0  0
 28  6  1  0  0  0  0
 28 54  1  0  0  0  0
 28 55  1  0  0  0  0
 29 56  1  0  0  0  0
 29 57  1  0  0  0  0
 29 58  1  0  0  0  0
 31 59  1  0  0  0  0
 31 60  1  0  0  0  0
M  CHG  1  25   1
M  END
