5ea5_ligand
 OpenBabel08222323353D

 98102  0  0  1  0  0  0  0  0999 V2000
   26.3570   25.8860   27.5260 C   0  0  0  0  0  0  0  0  0  0  0  0
   25.0060   26.2120   26.9220 C   0  0  0  0  0  0  0  0  0  0  0  0
   24.9310   25.8530   25.5880 N   0  3  0  0  0  0  0  0  0  0  0  0
   25.9770   26.3880   24.8530 C   0  0  0  0  0  0  0  0  0  0  0  0
   27.3360   26.0810   25.4560 C   0  0  0  0  0  0  0  0  0  0  0  0
   27.4040   26.4300   26.7940 O   0  0  0  0  0  0  0  0  0  0  0  0
   24.9280   24.5990   25.4860 C   0  0  0  0  0  0  0  0  0  0  0  0
   23.8400   24.1580   24.4760 C   0  0  0  0  0  0  0  0  0  0  0  0
   24.4990   23.9250   23.0620 C   0  0  0  0  0  0  0  0  0  0  0  0
   23.6370   24.5260   22.0330 N   0  0  0  0  0  0  0  0  0  0  0  0
   23.2080   23.7000   20.9200 C   0  0  0  0  0  0  0  0  0  0  0  0
   23.6640   23.7710   19.6030 N   0  0  0  0  0  0  0  0  0  0  0  0
   22.9990   22.8040   18.8680 C   0  0  0  0  0  0  0  0  0  0  0  0
   22.1480   22.1570   19.7520 C   0  0  0  0  0  0  0  0  0  0  0  0
   22.2510   22.6900   21.0090 N   0  0  0  0  0  0  0  0  0  0  0  0
   21.2410   21.0130   19.2110 C   0  0  0  0  0  0  0  0  0  0  0  0
   21.2310   20.5210   17.8180 C   0  0  0  0  0  0  0  0  0  0  0  0
   22.1400   21.2030   16.8440 C   0  0  0  0  0  0  0  0  0  0  0  0
   23.0270   22.3380   17.3480 C   0  0  0  0  0  0  0  0  0  0  0  0
   21.5290   22.2680   22.1940 C   0  0  0  0  0  0  0  0  0  0  0  0
   19.9870   22.4430   22.1060 C   0  0  2  0  0  0  0  0  0  0  0  0
   19.2880   23.4340   23.0070 C   0  0  0  0  0  0  0  0  0  0  0  0
   17.8130   23.6050   22.9350 C   0  0  0  0  0  0  0  0  0  0  0  0
   17.0060   22.7950   21.9750 C   0  0  0  0  0  0  0  0  0  0  0  0
   17.7080   21.7900   21.0710 C   0  0  1  0  0  0  0  0  0  0  0  0
   19.1790   21.6370   21.1650 N   0  3  0  0  0  0  0  0  0  0  0  0
   20.0420   24.2120   23.9220 O   0  0  0  0  0  0  0  0  0  0  0  0
   16.8840   20.9290   20.0590 C   0  0  0  0  0  0  0  0  0  0  0  0
   20.2680   19.3640   17.5170 C   0  0  0  0  0  0  0  0  0  0  0  0
   19.5740   19.0060   18.7510 N   0  3  0  0  0  0  0  0  0  0  0  0
   20.1430   18.1450   19.7750 C   0  0  1  0  0  0  0  0  0  0  0  0
   20.8720   18.7160   20.9930 C   0  0  0  0  0  0  0  0  0  0  0  0
   21.5000   17.8390   22.0950 C   0  0  2  0  0  0  0  0  0  0  0  0
   21.3550   16.3140   21.9530 C   0  0  0  0  0  0  0  0  0  0  0  0
   20.6150   15.7180   20.7470 C   0  0  0  0  0  0  0  0  0  0  0  0
   20.0060   16.6000   19.6580 C   0  0  2  0  0  0  0  0  0  0  0  0
   22.2510   18.4790   23.3090 C   0  0  0  0  0  0  0  0  0  0  0  0
   19.2800   15.9780   18.4810 C   0  0  0  0  0  0  0  0  0  0  0  0
   20.1900   14.9590   17.8000 C   0  0  0  0  0  0  0  0  0  0  0  0
   19.9310   14.9860   16.2950 C   0  0  0  0  0  0  0  0  0  0  0  0
   19.2790   13.8150   15.9240 O   0  0  0  0  0  0  0  0  0  0  0  0
   26.4768   24.7930   27.5569 H   0  0  0  0  0  0  0  0  0  0  0  0
   26.3939   26.2880   28.5492 H   0  0  0  0  0  0  0  0  0  0  0  0
   24.8311   27.2946   27.0081 H   0  0  0  0  0  0  0  0  0  0  0  0
   24.2282   25.6694   27.4794 H   0  0  0  0  0  0  0  0  0  0  0  0
   24.0663   26.2092   25.2119 H   0  0  0  0  0  0  0  0  0  0  0  0
   25.8516   27.4798   24.8063 H   0  0  0  0  0  0  0  0  0  0  0  0
   25.9414   25.9709   23.8358 H   0  0  0  0  0  0  0  0  0  0  0  0
   28.1039   26.6425   24.9038 H   0  0  0  0  0  0  0  0  0  0  0  0
   27.5307   25.0026   25.3606 H   0  0  0  0  0  0  0  0  0  0  0  0
   24.7161   24.1530   26.4690 H   0  0  0  0  0  0  0  0  0  0  0  0
   25.9129   24.2588   25.1336 H   0  0  0  0  0  0  0  0  0  0  0  0
   23.0725   24.9421   24.3981 H   0  0  0  0  0  0  0  0  0  0  0  0
   23.3753   23.2231   24.8225 H   0  0  0  0  0  0  0  0  0  0  0  0
   24.6009   22.8459   22.8748 H   0  0  0  0  0  0  0  0  0  0  0  0
   25.4920   24.3973   23.0345 H   0  0  0  0  0  0  0  0  0  0  0  0
   23.3444   25.5112   22.1010 H   0  0  0  0  0  0  0  0  0  0  0  0
   20.5599   20.5377   19.9154 H   0  0  0  0  0  0  0  0  0  0  0  0
   21.5079   21.6157   16.0439 H   0  0  0  0  0  0  0  0  0  0  0  0
   22.8046   20.4327   16.4258 H   0  0  0  0  0  0  0  0  0  0  0  0
   24.0639   22.0393   17.1343 H   0  0  0  0  0  0  0  0  0  0  0  0
   22.7691   23.2229   16.7476 H   0  0  0  0  0  0  0  0  0  0  0  0
   21.8936   22.8590   23.0471 H   0  0  0  0  0  0  0  0  0  0  0  0
   21.7445   21.2032   22.3666 H   0  0  0  0  0  0  0  0  0  0  0  0
   20.1175   23.2190   21.3374 H   0  0  0  0  0  0  0  0  0  0  0  0
   17.3187   24.3247   23.5858 H   0  0  0  0  0  0  0  0  0  0  0  0
   16.4814   23.5048   21.3185 H   0  0  0  0  0  0  0  0  0  0  0  0
   16.2706   22.2327   22.5691 H   0  0  0  0  0  0  0  0  0  0  0  0
   17.8359   22.5665   20.3025 H   0  0  0  0  0  0  0  0  0  0  0  0
   19.3488   20.6718   21.4007 H   0  0  0  0  0  0  0  0  0  0  0  0
   19.5429   21.8272   20.2444 H   0  0  0  0  0  0  0  0  0  0  0  0
   19.9240   25.1337   23.7246 H   0  0  0  0  0  0  0  0  0  0  0  0
   15.8179   21.1876   20.1406 H   0  0  0  0  0  0  0  0  0  0  0  0
   17.0210   19.8620   20.2887 H   0  0  0  0  0  0  0  0  0  0  0  0
   17.2332   21.1316   19.0358 H   0  0  0  0  0  0  0  0  0  0  0  0
   20.8340   18.4973   17.1448 H   0  0  0  0  0  0  0  0  0  0  0  0
   19.5366   19.6779   16.7577 H   0  0  0  0  0  0  0  0  0  0  0  0
   18.7157   18.5619   18.4645 H   0  0  0  0  0  0  0  0  0  0  0  0
   19.3639   19.8780   19.2110 H   0  0  0  0  0  0  0  0  0  0  0  0
   21.0907   18.1138   19.2175 H   0  0  0  0  0  0  0  0  0  0  0  0
   20.1443   19.3645   21.5027 H   0  0  0  0  0  0  0  0  0  0  0  0
   21.6925   19.3295   20.5925 H   0  0  0  0  0  0  0  0  0  0  0  0
   22.4480   17.8062   21.5381 H   0  0  0  0  0  0  0  0  0  0  0  0
   20.8301   15.9606   22.8528 H   0  0  0  0  0  0  0  0  0  0  0  0
   22.3737   15.8992   21.9360 H   0  0  0  0  0  0  0  0  0  0  0  0
   19.7884   15.1193   21.1572 H   0  0  0  0  0  0  0  0  0  0  0  0
   21.3325   15.0549   20.2416 H   0  0  0  0  0  0  0  0  0  0  0  0
   19.0591   16.6395   20.2163 H   0  0  0  0  0  0  0  0  0  0  0  0
   22.2366   19.5747   23.2127 H   0  0  0  0  0  0  0  0  0  0  0  0
   23.2927   18.1259   23.3233 H   0  0  0  0  0  0  0  0  0  0  0  0
   21.7518   18.1866   24.2445 H   0  0  0  0  0  0  0  0  0  0  0  0
   19.0077   16.7643   17.7615 H   0  0  0  0  0  0  0  0  0  0  0  0
   18.3688   15.4750   18.8369 H   0  0  0  0  0  0  0  0  0  0  0  0
   19.9765   13.9539   18.1926 H   0  0  0  0  0  0  0  0  0  0  0  0
   21.2416   15.2141   17.9975 H   0  0  0  0  0  0  0  0  0  0  0  0
   20.8880   15.0606   15.7579 H   0  0  0  0  0  0  0  0  0  0  0  0
   19.3017   15.8529   16.0451 H   0  0  0  0  0  0  0  0  0  0  0  0
   19.1158   13.8276   14.9882 H   0  0  0  0  0  0  0  0  0  0  0  0
  1  2  1  0  0  0  0
  1  6  1  0  0  0  0
  1 42  1  0  0  0  0
  1 43  1  0  0  0  0
  2  3  1  0  0  0  0
  2 44  1  0  0  0  0
  2 45  1  0  0  0  0
  3  4  1  0  0  0  0
  3  7  1  0  0  0  0
  3 46  1  0  0  0  0
  4  5  1  0  0  0  0
  4 47  1  0  0  0  0
  4 48  1  0  0  0  0
  5  6  1  0  0  0  0
  5 49  1  0  0  0  0
  5 50  1  0  0  0  0
  7  8  1  0  0  0  0
  7 51  1  0  0  0  0
  7 52  1  0  0  0  0
  8  9  1  0  0  0  0
  8 53  1  0  0  0  0
  8 54  1  0  0  0  0
  9 10  1  0  0  0  0
  9 55  1  0  0  0  0
  9 56  1  0  0  0  0
 10 11  1  0  0  0  0
 10 57  1  0  0  0  0
 11 12  2  0  0  0  0
 11 15  1  0  0  0  0
 12 13  1  0  0  0  0
 13 14  2  0  0  0  0
 13 19  1  0  0  0  0
 14 15  1  0  0  0  0
 14 16  1  0  0  0  0
 15 20  1  0  0  0  0
 16 17  2  0  0  0  0
 16 58  1  0  0  0  0
 17 18  1  0  0  0  0
 17 29  1  0  0  0  0
 18 19  1  0  0  0  0
 18 59  1  0  0  0  0
 18 60  1  0  0  0  0
 19 61  1  0  0  0  0
 19 62  1  0  0  0  0
 20 21  1  0  0  0  0
 20 63  1  0  0  0  0
 20 64  1  0  0  0  0
 21 22  1  0  0  0  0
 21 26  1  0  0  0  0
 21 65  1  6  0  0  0
 22 23  2  0  0  0  0
 22 27  1  0  0  0  0
 23 24  1  0  0  0  0
 23 66  1  0  0  0  0
 24 25  1  0  0  0  0
 24 67  1  0  0  0  0
 24 68  1  0  0  0  0
 25 26  1  0  0  0  0
 25 28  1  0  0  0  0
 25 69  1  6  0  0  0
 26 70  1  0  0  0  0
 26 71  1  0  0  0  0
 27 72  1  0  0  0  0
 28 73  1  0  0  0  0
 28 74  1  0  0  0  0
 28 75  1  0  0  0  0
 29 30  1  0  0  0  0
 29 76  1  0  0  0  0
 29 77  1  0  0  0  0
 30 31  1  0  0  0  0
 30 78  1  0  0  0  0
 30 79  1  0  0  0  0
 31 32  1  0  0  0  0
 31 36  1  0  0  0  0
 31 80  1  6  0  0  0
 32 33  1  0  0  0  0
 32 81  1  0  0  0  0
 32 82  1  0  0  0  0
 33 34  1  0  0  0  0
 33 37  1  0  0  0  0
 33 83  1  6  0  0  0
 34 35  1  0  0  0  0
 34 84  1  0  0  0  0
 34 85  1  0  0  0  0
 35 36  1  0  0  0  0
 35 86  1  0  0  0  0
 35 87  1  0  0  0  0
 36 38  1  0  0  0  0
 36 88  1  1  0  0  0
 37 89  1  0  0  0  0
 37 90  1  0  0  0  0
 37 91  1  0  0  0  0
 38 39  1  0  0  0  0
 38 92  1  0  0  0  0
 38 93  1  0  0  0  0
 39 40  1  0  0  0  0
 39 94  1  0  0  0  0
 39 95  1  0  0  0  0
 40 41  1  0  0  0  0
 40 96  1  0  0  0  0
 40 97  1  0  0  0  0
 41 98  1  0  0  0  0
M  CHG  3   3   1  26   1  30   1
M  END
