5ea7_ligand
 OpenBabel08222323353D

 51 55  0  0  0  0  0  0  0  0999 V2000
   16.6060   21.7640   21.8010 C   0  0  0  0  0  0  0  0  0  0  0  0
   21.4770   20.6180   19.6330 C   0  0  0  0  0  0  0  0  0  0  0  0
   22.8060   22.4180   19.5840 C   0  0  0  0  0  0  0  0  0  0  0  0
   23.7070   24.0680   17.4940 C   0  0  0  0  0  0  0  0  0  0  0  0
   22.8610   22.9800   17.2230 C   0  0  0  0  0  0  0  0  0  0  0  0
   22.4050   22.1440   18.2890 C   0  0  0  0  0  0  0  0  0  0  0  0
   20.9510   20.4050   17.1780 C   0  0  0  0  0  0  0  0  0  0  0  0
   18.8290   20.2150   15.7570 C   0  0  0  0  0  0  0  0  0  0  0  0
   15.1650   17.5880   20.5270 C   0  0  0  0  0  0  0  0  0  0  0  0
   15.0340   18.1620   19.1310 C   0  0  0  0  0  0  0  0  0  0  0  0
   15.6710   18.9920   20.2340 C   0  0  0  0  0  0  0  0  0  0  0  0
   17.0040   19.4970   20.4490 N   0  0  0  0  0  0  0  0  0  0  0  0
   17.3490   20.7160   21.1420 C   0  0  0  0  0  0  0  0  0  0  0  0
   18.7520   20.8450   21.1320 C   0  0  0  0  0  0  0  0  0  0  0  0
   19.3550   21.9710   21.7550 C   0  0  0  0  0  0  0  0  0  0  0  0
   18.6150   22.9080   22.3480 N   0  0  0  0  0  0  0  0  0  0  0  0
   17.2790   22.8400   22.3890 C   0  0  0  0  0  0  0  0  0  0  0  0
   19.2950   19.7060   20.4280 N   0  0  0  0  0  0  0  0  0  0  0  0
   18.2110   18.8830   20.0180 C   0  0  0  0  0  0  0  0  0  0  0  0
   18.3040   17.8360   19.4020 O   0  0  0  0  0  0  0  0  0  0  0  0
   20.6860   19.4110   20.1770 C   0  0  0  0  0  0  0  0  0  0  0  0
   22.2170   21.4520   20.3980 N   0  0  0  0  0  0  0  0  0  0  0  0
   23.6690   23.5270   19.8560 C   0  0  0  0  0  0  0  0  0  0  0  0
   24.1130   24.3470   18.8100 C   0  0  0  0  0  0  0  0  0  0  0  0
   21.5760   21.0260   18.3340 N   0  0  0  0  0  0  0  0  0  0  0  0
   19.4180   20.5520   17.1410 C   0  0  0  0  0  0  0  0  0  0  0  0
   17.2970   20.1200   15.7700 C   0  0  0  0  0  0  0  0  0  0  0  0
   16.8340   20.0820   14.4310 O   0  0  0  0  0  0  0  0  0  0  0  0
   15.5237   21.7168   21.8402 H   0  0  0  0  0  0  0  0  0  0  0  0
   24.0496   24.6978   16.6810 H   0  0  0  0  0  0  0  0  0  0  0  0
   22.5535   22.7741   16.2041 H   0  0  0  0  0  0  0  0  0  0  0  0
   21.1956   19.3326   17.1867 H   0  0  0  0  0  0  0  0  0  0  0  0
   21.3650   20.8682   16.2702 H   0  0  0  0  0  0  0  0  0  0  0  0
   19.2383   19.2489   15.4265 H   0  0  0  0  0  0  0  0  0  0  0  0
   19.1264   21.0012   15.0475 H   0  0  0  0  0  0  0  0  0  0  0  0
   15.8803   16.7755   20.7224 H   0  0  0  0  0  0  0  0  0  0  0  0
   14.2691   17.4453   21.1490 H   0  0  0  0  0  0  0  0  0  0  0  0
   14.0429   18.4356   18.7400 H   0  0  0  0  0  0  0  0  0  0  0  0
   15.6542   17.7659   18.3134 H   0  0  0  0  0  0  0  0  0  0  0  0
   15.0341   19.8127   20.5955 H   0  0  0  0  0  0  0  0  0  0  0  0
   20.4345   22.0696   21.7479 H   0  0  0  0  0  0  0  0  0  0  0  0
   16.7148   23.6239   22.8811 H   0  0  0  0  0  0  0  0  0  0  0  0
   21.1496   19.0861   21.1201 H   0  0  0  0  0  0  0  0  0  0  0  0
   20.7426   18.5958   19.4406 H   0  0  0  0  0  0  0  0  0  0  0  0
   23.9799   23.7331   20.8738 H   0  0  0  0  0  0  0  0  0  0  0  0
   24.7641   25.1893   19.0143 H   0  0  0  0  0  0  0  0  0  0  0  0
   19.1564   21.5903   17.3930 H   0  0  0  0  0  0  0  0  0  0  0  0
   18.9797   19.8722   17.8865 H   0  0  0  0  0  0  0  0  0  0  0  0
   16.8758   20.9973   16.2827 H   0  0  0  0  0  0  0  0  0  0  0  0
   16.9871   19.2045   16.2951 H   0  0  0  0  0  0  0  0  0  0  0  0
   15.8858   20.0231   14.4265 H   0  0  0  0  0  0  0  0  0  0  0  0
  1 17  1  0  0  0  0
  1 29  1  0  0  0  0
  2 22  2  0  0  0  0
  2 25  1  0  0  0  0
  3 23  1  0  0  0  0
  4 24  1  0  0  0  0
  4 30  1  0  0  0  0
  5  4  2  0  0  0  0
  5 31  1  0  0  0  0
  6  3  2  0  0  0  0
  6  5  1  0  0  0  0
  7 26  1  0  0  0  0
  7 32  1  0  0  0  0
  7 33  1  0  0  0  0
  8 27  1  0  0  0  0
  8 34  1  0  0  0  0
  8 35  1  0  0  0  0
  9 36  1  0  0  0  0
  9 37  1  0  0  0  0
 10  9  1  0  0  0  0
 10 38  1  0  0  0  0
 10 39  1  0  0  0  0
 11  9  1  0  0  0  0
 11 10  1  0  0  0  0
 11 40  1  0  0  0  0
 12 11  1  0  0  0  0
 12 13  1  0  0  0  0
 13  1  2  0  0  0  0
 14 13  1  0  0  0  0
 14 15  2  0  0  0  0
 15 16  1  0  0  0  0
 15 41  1  0  0  0  0
 16 17  2  0  0  0  0
 17 42  1  0  0  0  0
 18 14  1  0  0  0  0
 18 19  1  0  0  0  0
 18 21  1  0  0  0  0
 19 12  1  0  0  0  0
 19 20  2  0  0  0  0
 21  2  1  0  0  0  0
 21 43  1  0  0  0  0
 21 44  1  0  0  0  0
 22  3  1  0  0  0  0
 23 24  2  0  0  0  0
 23 45  1  0  0  0  0
 24 46  1  0  0  0  0
 25  6  1  0  0  0  0
 25  7  1  0  0  0  0
 26  8  1  0  0  0  0
 26 47  1  0  0  0  0
 26 48  1  0  0  0  0
 27 28  1  0  0  0  0
 27 49  1  0  0  0  0
 27 50  1  0  0  0  0
 28 51  1  0  0  0  0
M  END
