5ece_ligand
 OpenBabel08222323353D

 56 60  0  0  0  0  0  0  0  0999 V2000
   14.7510   -3.4340   44.6540 C   0  0  0  0  0  0  0  0  0  0  0  0
   14.6400   -4.2000   43.5030 C   0  0  0  0  0  0  0  0  0  0  0  0
   13.4590   -4.2130   42.7770 C   0  0  0  0  0  0  0  0  0  0  0  0
   11.4070   -1.6720   44.6600 C   0  0  0  0  0  0  0  0  0  0  0  0
   11.1380   -3.3750   42.4110 C   0  0  0  0  0  0  0  0  0  0  0  0
   11.3970   -0.7980   45.8940 C   0  0  0  0  0  0  0  0  0  0  0  0
   11.6830    0.6680   45.6520 C   0  0  0  0  0  0  0  0  0  0  0  0
   12.3310    1.4400   46.6160 C   0  0  0  0  0  0  0  0  0  0  0  0
   12.5930    2.7850   46.3890 C   0  0  0  0  0  0  0  0  0  0  0  0
   12.2120    3.3760   45.1920 C   0  0  0  0  0  0  0  0  0  0  0  0
   11.1120    3.1470   42.8790 C   0  0  0  0  0  0  0  0  0  0  0  0
    9.8740    5.1640   43.8360 C   0  0  0  0  0  0  0  0  0  0  0  0
    6.5710    6.1000   42.3200 C   0  0  0  0  0  0  0  0  0  0  0  0
    4.1950    7.4860   41.9880 C   0  0  0  0  0  0  0  0  0  0  0  0
    4.5820    6.9130   43.1870 C   0  0  0  0  0  0  0  0  0  0  0  0
    7.1330    6.6800   39.8470 C   0  0  0  0  0  0  0  0  0  0  0  0
   12.3860   -3.4160   43.1850 C   0  0  0  0  0  0  0  0  0  0  0  0
   12.5230   -2.5840   44.3150 C   0  0  0  0  0  0  0  0  0  0  0  0
   13.7040   -2.6210   45.0620 C   0  0  0  0  0  0  0  0  0  0  0  0
   10.2970   -1.6770   43.9990 N   0  0  0  0  0  0  0  0  0  0  0  0
   10.2080   -2.5130   42.8630 N   0  0  0  0  0  0  0  0  0  0  0  0
   10.9180   -4.0700   41.4240 O   0  0  0  0  0  0  0  0  0  0  0  0
   11.5160    2.6340   44.2320 C   0  0  0  0  0  0  0  0  0  0  0  0
   11.2950    1.2740   44.4540 C   0  0  0  0  0  0  0  0  0  0  0  0
   11.4020    2.4790   41.9030 O   0  0  0  0  0  0  0  0  0  0  0  0
   10.4220    4.3100   42.7690 N   0  0  0  0  0  0  0  0  0  0  0  0
    8.3360    5.0930   43.8270 C   0  0  0  0  0  0  0  0  0  0  0  0
    7.7920    5.3970   42.4930 N   0  0  0  0  0  0  0  0  0  0  0  0
    8.4190    4.6000   41.4280 C   0  0  0  0  0  0  0  0  0  0  0  0
    9.9260    4.7690   41.4660 C   0  0  0  0  0  0  0  0  0  0  0  0
    6.2690    6.7350   40.9980 C   0  0  0  0  0  0  0  0  0  0  0  0
    5.0430    7.3990   40.8950 C   0  0  0  0  0  0  0  0  0  0  0  0
    5.7160    6.2080   43.3540 N   0  0  0  0  0  0  0  0  0  0  0  0
    7.8410    6.6030   38.9560 N   0  0  0  0  0  0  0  0  0  0  0  0
   15.6628   -3.4710   45.2390 H   0  0  0  0  0  0  0  0  0  0  0  0
   15.4834   -4.7932   43.1685 H   0  0  0  0  0  0  0  0  0  0  0  0
   13.3682   -4.8388   41.8965 H   0  0  0  0  0  0  0  0  0  0  0  0
   12.1585   -1.1823   46.5885 H   0  0  0  0  0  0  0  0  0  0  0  0
   10.4032   -0.8778   46.3587 H   0  0  0  0  0  0  0  0  0  0  0  0
   12.6334    0.9854   47.5525 H   0  0  0  0  0  0  0  0  0  0  0  0
   13.0957    3.3740   47.1476 H   0  0  0  0  0  0  0  0  0  0  0  0
   12.4545    4.4151   45.0008 H   0  0  0  0  0  0  0  0  0  0  0  0
   10.1919    6.2039   43.6702 H   0  0  0  0  0  0  0  0  0  0  0  0
   10.2493    4.8167   44.8099 H   0  0  0  0  0  0  0  0  0  0  0  0
    3.2419    7.9957   41.9049 H   0  0  0  0  0  0  0  0  0  0  0  0
    3.9313    7.0400   44.0446 H   0  0  0  0  0  0  0  0  0  0  0  0
   13.8011   -2.0166   45.9566 H   0  0  0  0  0  0  0  0  0  0  0  0
    9.3597   -2.4581   42.3363 H   0  0  0  0  0  0  0  0  0  0  0  0
   10.8151    0.6787   43.6856 H   0  0  0  0  0  0  0  0  0  0  0  0
    7.9398    5.8216   44.5496 H   0  0  0  0  0  0  0  0  0  0  0  0
    8.0228    4.0797   44.1188 H   0  0  0  0  0  0  0  0  0  0  0  0
    8.0402    4.9361   40.4515 H   0  0  0  0  0  0  0  0  0  0  0  0
    8.1686    3.5387   41.5729 H   0  0  0  0  0  0  0  0  0  0  0  0
   10.3851    4.1716   40.6646 H   0  0  0  0  0  0  0  0  0  0  0  0
   10.1825    5.8294   41.3257 H   0  0  0  0  0  0  0  0  0  0  0  0
    4.7532    7.8495   39.9526 H   0  0  0  0  0  0  0  0  0  0  0  0
  1  2  2  0  0  0  0
  1 35  1  0  0  0  0
  2 36  1  0  0  0  0
  3  2  1  0  0  0  0
  3 37  1  0  0  0  0
  4 18  1  0  0  0  0
  4 20  2  0  0  0  0
  5 22  2  0  0  0  0
  6  4  1  0  0  0  0
  6 38  1  0  0  0  0
  6 39  1  0  0  0  0
  7  6  1  0  0  0  0
  7  8  2  0  0  0  0
  8 40  1  0  0  0  0
  9  8  1  0  0  0  0
  9 41  1  0  0  0  0
 10  9  2  0  0  0  0
 10 42  1  0  0  0  0
 11 23  1  0  0  0  0
 11 25  2  0  0  0  0
 12 26  1  0  0  0  0
 12 43  1  0  0  0  0
 12 44  1  0  0  0  0
 13 31  2  0  0  0  0
 13 33  1  0  0  0  0
 14 32  2  0  0  0  0
 14 45  1  0  0  0  0
 15 14  1  0  0  0  0
 15 46  1  0  0  0  0
 16 34  3  0  0  0  0
 17  3  2  0  0  0  0
 17  5  1  0  0  0  0
 18 17  1  0  0  0  0
 18 19  2  0  0  0  0
 19  1  1  0  0  0  0
 19 47  1  0  0  0  0
 20 21  1  0  0  0  0
 21  5  1  0  0  0  0
 21 48  1  0  0  0  0
 23 10  1  0  0  0  0
 23 24  2  0  0  0  0
 24  7  1  0  0  0  0
 24 49  1  0  0  0  0
 26 11  1  0  0  0  0
 26 30  1  0  0  0  0
 27 12  1  0  0  0  0
 27 28  1  0  0  0  0
 27 50  1  0  0  0  0
 27 51  1  0  0  0  0
 28 13  1  0  0  0  0
 28 29  1  0  0  0  0
 29 30  1  0  0  0  0
 29 52  1  0  0  0  0
 29 53  1  0  0  0  0
 30 54  1  0  0  0  0
 30 55  1  0  0  0  0
 31 16  1  0  0  0  0
 31 32  1  0  0  0  0
 32 56  1  0  0  0  0
 33 15  2  0  0  0  0
M  END
