5em7_ligand
 OpenBabel08222323353D

 60 63  0  0  0  0  0  0  0  0999 V2000
  -51.9450   -0.1330  -14.2280 C   0  0  0  0  0  0  0  0  0  0  0  0
  -49.5210    0.0920  -14.8220 C   0  0  0  0  0  0  0  0  0  0  0  0
  -52.2440    0.9430  -19.0190 C   0  0  0  0  0  0  0  0  0  0  0  0
  -49.1770   -0.1520  -13.3390 C   0  0  0  0  0  0  0  0  0  0  0  0
  -51.3170    0.7120  -16.3600 C   0  0  0  0  0  0  0  0  0  0  0  0
  -52.2790    1.6740  -16.7040 C   0  0  0  0  0  0  0  0  0  0  0  0
  -52.7340    1.7840  -18.0130 C   0  0  0  0  0  0  0  0  0  0  0  0
  -51.3040   -0.0400  -18.6770 C   0  0  0  0  0  0  0  0  0  0  0  0
  -50.8470   -0.1540  -17.3680 C   0  0  0  0  0  0  0  0  0  0  0  0
  -50.2410   -0.9440  -12.6840 N   0  3  0  0  0  0  0  0  0  0  0  0
  -51.5560   -0.2800  -12.7520 C   0  0  0  0  0  0  0  0  0  0  0  0
  -49.8910   -1.2660  -11.2920 C   0  0  0  0  0  0  0  0  0  0  0  0
  -50.9100    0.5970  -15.0080 N   0  0  0  0  0  0  0  0  0  0  0  0
  -52.7930    1.0990  -20.3150 N   0  0  0  0  0  0  0  0  0  0  0  0
  -52.4950    0.4600  -21.4810 C   0  0  0  0  0  0  0  0  0  0  0  0
  -51.6190   -0.3850  -21.4880 O   0  0  0  0  0  0  0  0  0  0  0  0
  -53.2570    0.7530  -22.7320 C   0  0  0  0  0  0  0  0  0  0  0  0
  -52.9250    0.1460  -23.9920 C   0  0  0  0  0  0  0  0  0  0  0  0
  -53.6940    0.4600  -25.1400 C   0  0  0  0  0  0  0  0  0  0  0  0
  -54.7480    1.3040  -25.0580 C   0  0  0  0  0  0  0  0  0  0  0  0
  -55.0750    1.8930  -23.8780 N   0  0  0  0  0  0  0  0  0  0  0  0
  -54.3860    1.6500  -22.7350 C   0  0  0  0  0  0  0  0  0  0  0  0
  -54.7590    2.2370  -21.7310 O   0  0  0  0  0  0  0  0  0  0  0  0
  -51.8460   -0.7060  -24.1590 N   0  0  0  0  0  0  0  0  0  0  0  0
  -51.9070   -2.0780  -24.4620 C   0  0  0  0  0  0  0  0  0  0  0  0
  -52.1060   -2.9990  -23.4270 C   0  0  0  0  0  0  0  0  0  0  0  0
  -52.1240   -4.3650  -23.6890 C   0  0  0  0  0  0  0  0  0  0  0  0
  -51.8990   -4.8260  -24.9820 C   0  0  0  0  0  0  0  0  0  0  0  0
  -51.6630   -3.9240  -26.0160 C   0  0  0  0  0  0  0  0  0  0  0  0
  -51.6690   -2.5430  -25.7720 C   0  0  0  0  0  0  0  0  0  0  0  0
  -51.4240   -1.6580  -26.7900 O   0  0  0  0  0  0  0  0  0  0  0  0
  -52.3560   -1.5390  -27.8760 C   0  0  0  0  0  0  0  0  0  0  0  0
  -52.8934    0.4205  -14.2917 H   0  0  0  0  0  0  0  0  0  0  0  0
  -52.0754   -1.1352  -14.6622 H   0  0  0  0  0  0  0  0  0  0  0  0
  -49.4136   -0.8557  -15.3700 H   0  0  0  0  0  0  0  0  0  0  0  0
  -48.8182    0.8333  -15.2302 H   0  0  0  0  0  0  0  0  0  0  0  0
  -49.0787    0.8161  -12.8261 H   0  0  0  0  0  0  0  0  0  0  0  0
  -48.2255   -0.7000  -13.2735 H   0  0  0  0  0  0  0  0  0  0  0  0
  -52.6710    2.3376  -15.9418 H   0  0  0  0  0  0  0  0  0  0  0  0
  -53.4792    2.5320  -18.2583 H   0  0  0  0  0  0  0  0  0  0  0  0
  -50.9309   -0.7158  -19.4380 H   0  0  0  0  0  0  0  0  0  0  0  0
  -50.1199   -0.9188  -17.1199 H   0  0  0  0  0  0  0  0  0  0  0  0
  -50.3175   -1.8143  -13.1868 H   0  0  0  0  0  0  0  0  0  0  0  0
  -52.3076   -0.8887  -12.2280 H   0  0  0  0  0  0  0  0  0  0  0  0
  -51.4961    0.7129  -12.2824 H   0  0  0  0  0  0  0  0  0  0  0  0
  -48.9083   -1.7596  -11.2658 H   0  0  0  0  0  0  0  0  0  0  0  0
  -50.6510   -1.9395  -10.8692 H   0  0  0  0  0  0  0  0  0  0  0  0
  -49.8519   -0.3397  -10.7001 H   0  0  0  0  0  0  0  0  0  0  0  0
  -53.5144    1.7879  -20.3857 H   0  0  0  0  0  0  0  0  0  0  0  0
  -53.4334    0.0165  -26.0999 H   0  0  0  0  0  0  0  0  0  0  0  0
  -55.3407    1.5136  -25.9472 H   0  0  0  0  0  0  0  0  0  0  0  0
  -55.8486    2.5261  -23.8513 H   0  0  0  0  0  0  0  0  0  0  0  0
  -50.9078   -0.2949  -24.0508 H   0  0  0  0  0  0  0  0  0  0  0  0
  -52.2473   -2.6447  -22.4123 H   0  0  0  0  0  0  0  0  0  0  0  0
  -52.3131   -5.0692  -22.8868 H   0  0  0  0  0  0  0  0  0  0  0  0
  -51.9074   -5.8908  -25.1852 H   0  0  0  0  0  0  0  0  0  0  0  0
  -51.4731   -4.2922  -27.0177 H   0  0  0  0  0  0  0  0  0  0  0  0
  -51.9924   -0.7856  -28.5902 H   0  0  0  0  0  0  0  0  0  0  0  0
  -53.3369   -1.2306  -27.4853 H   0  0  0  0  0  0  0  0  0  0  0  0
  -52.4525   -2.5097  -28.3844 H   0  0  0  0  0  0  0  0  0  0  0  0
  1 11  1  0  0  0  0
  1 33  1  0  0  0  0
  1 34  1  0  0  0  0
  2  4  1  0  0  0  0
  2 35  1  0  0  0  0
  2 36  1  0  0  0  0
  3  8  1  0  0  0  0
  3 14  1  0  0  0  0
  4 10  1  0  0  0  0
  4 37  1  0  0  0  0
  4 38  1  0  0  0  0
  5  9  1  0  0  0  0
  5 13  1  0  0  0  0
  6  5  2  0  0  0  0
  6  7  1  0  0  0  0
  6 39  1  0  0  0  0
  7  3  2  0  0  0  0
  7 40  1  0  0  0  0
  8  9  2  0  0  0  0
  8 41  1  0  0  0  0
  9 42  1  0  0  0  0
 10 11  1  0  0  0  0
 10 12  1  0  0  0  0
 10 43  1  0  0  0  0
 11 44  1  0  0  0  0
 11 45  1  0  0  0  0
 12 46  1  0  0  0  0
 12 47  1  0  0  0  0
 12 48  1  0  0  0  0
 13  1  1  0  0  0  0
 13  2  1  0  0  0  0
 14 15  1  0  0  0  0
 14 49  1  0  0  0  0
 15 16  2  0  0  0  0
 15 17  1  0  0  0  0
 17 18  2  0  0  0  0
 17 22  1  0  0  0  0
 18 19  1  0  0  0  0
 18 24  1  0  0  0  0
 19 20  2  0  0  0  0
 19 50  1  0  0  0  0
 20 21  1  0  0  0  0
 20 51  1  0  0  0  0
 21 22  1  0  0  0  0
 21 52  1  0  0  0  0
 22 23  2  0  0  0  0
 24 25  1  0  0  0  0
 24 53  1  0  0  0  0
 25 26  2  0  0  0  0
 25 30  1  0  0  0  0
 26 27  1  0  0  0  0
 26 54  1  0  0  0  0
 27 28  2  0  0  0  0
 27 55  1  0  0  0  0
 28 29  1  0  0  0  0
 28 56  1  0  0  0  0
 29 30  2  0  0  0  0
 29 57  1  0  0  0  0
 30 31  1  0  0  0  0
 31 32  1  0  0  0  0
 32 58  1  0  0  0  0
 32 59  1  0  0  0  0
 32 60  1  0  0  0  0
M  CHG  1  10   1
M  END
