5f2k_ligand
 OpenBabel08222323353D

 46 48  0  0  1  0  0  0  0  0999 V2000
  -21.5560   -3.2870  -31.9000 N   0  3  0  0  0  0  0  0  0  0  0  0
  -20.4620   -2.8150  -31.0380 C   0  0  1  0  0  0  0  0  0  0  0  0
  -19.2570   -3.7670  -31.1360 C   0  0  0  0  0  0  0  0  0  0  0  0
  -18.5490   -3.7510  -32.4970 C   0  0  0  0  0  0  0  0  0  0  0  0
  -16.9770   -4.5730  -32.3800 S   0  0  0  0  0  0  0  0  0  0  0  0
  -20.0970   -1.3890  -31.3530 C   0  0  0  0  0  0  0  0  0  0  0  0
  -20.7280   -0.7300  -32.1850 O   0  5  0  0  0  0  0  0  0  0  0  0
  -19.1600   -0.8350  -30.7660 O   0  0  0  0  0  0  0  0  0  0  0  0
  -17.1090   -5.8240  -33.6230 C   0  0  0  0  0  0  0  0  0  0  0  0
  -17.7520   -7.0990  -33.0730 C   0  0  1  0  0  0  0  0  0  0  0  0
  -18.1890   -7.9250  -34.1630 O   0  0  0  0  0  0  0  0  0  0  0  0
  -16.7660   -7.9340  -32.2510 C   0  0  1  0  0  0  0  0  0  0  0  0
  -17.3040   -8.2520  -30.9620 O   0  0  0  0  0  0  0  0  0  0  0  0
  -16.5930   -9.1970  -33.0720 C   0  0  1  0  0  0  0  0  0  0  0  0
  -16.2890  -10.3620  -32.2970 O   0  0  0  0  0  0  0  0  0  0  0  0
  -17.9440   -9.2680  -33.7720 C   0  0  2  0  0  0  0  0  0  0  0  0
  -17.9140  -10.2110  -34.9050 N   0  0  0  0  0  0  0  0  0  0  0  0
  -17.0110  -10.2770  -35.9010 C   0  0  0  0  0  0  0  0  0  0  0  0
  -17.3100  -11.3000  -36.7430 N   0  0  0  0  0  0  0  0  0  0  0  0
  -18.4130  -11.9040  -36.2630 C   0  0  0  0  0  0  0  0  0  0  0  0
  -19.2670  -13.0410  -36.6520 C   0  0  0  0  0  0  0  0  0  0  0  0
  -18.9730  -13.7680  -37.7520 N   0  0  0  0  0  0  0  0  0  0  0  0
  -20.3390  -13.3260  -35.8700 N   0  0  0  0  0  0  0  0  0  0  0  0
  -20.6360  -12.6170  -34.7650 C   0  0  0  0  0  0  0  0  0  0  0  0
  -19.9000  -11.5680  -34.3540 N   0  0  0  0  0  0  0  0  0  0  0  0
  -18.8060  -11.1780  -35.0530 C   0  0  0  0  0  0  0  0  0  0  0  0
  -21.7788   -4.2422  -31.6674 H   0  0  0  0  0  0  0  0  0  0  0  0
  -21.2700   -3.2341  -32.8651 H   0  0  0  0  0  0  0  0  0  0  0  0
  -22.3691   -2.7083  -31.7582 H   0  0  0  0  0  0  0  0  0  0  0  0
  -20.8195   -2.8396  -29.9980 H   0  0  0  0  0  0  0  0  0  0  0  0
  -19.6102   -4.7908  -30.9434 H   0  0  0  0  0  0  0  0  0  0  0  0
  -18.5273   -3.4797  -30.3647 H   0  0  0  0  0  0  0  0  0  0  0  0
  -18.3917   -2.7091  -32.8127 H   0  0  0  0  0  0  0  0  0  0  0  0
  -19.1753   -4.2683  -33.2387 H   0  0  0  0  0  0  0  0  0  0  0  0
  -16.1025   -6.0642  -33.9961 H   0  0  0  0  0  0  0  0  0  0  0  0
  -17.7251   -5.4417  -34.4502 H   0  0  0  0  0  0  0  0  0  0  0  0
  -18.6107   -6.8223  -32.4437 H   0  0  0  0  0  0  0  0  0  0  0  0
  -15.8089   -7.4053  -32.1313 H   0  0  0  0  0  0  0  0  0  0  0  0
  -16.6728   -8.7689  -30.4754 H   0  0  0  0  0  0  0  0  0  0  0  0
  -15.7869   -9.0643  -33.8086 H   0  0  0  0  0  0  0  0  0  0  0  0
  -16.9933  -10.5234  -31.6803 H   0  0  0  0  0  0  0  0  0  0  0  0
  -18.7209   -9.5991  -33.0672 H   0  0  0  0  0  0  0  0  0  0  0  0
  -16.1613   -9.6055  -36.0155 H   0  0  0  0  0  0  0  0  0  0  0  0
  -19.5723  -14.5616  -38.0202 H   0  0  0  0  0  0  0  0  0  0  0  0
  -18.1495  -13.5287  -38.3225 H   0  0  0  0  0  0  0  0  0  0  0  0
  -21.5040  -12.9029  -34.1820 H   0  0  0  0  0  0  0  0  0  0  0  0
  1  2  1  0  0  0  0
  1 27  1  0  0  0  0
  1 28  1  0  0  0  0
  1 29  1  0  0  0  0
  2  3  1  0  0  0  0
  2  6  1  0  0  0  0
  2 30  1  1  0  0  0
  3  4  1  0  0  0  0
  3 31  1  0  0  0  0
  3 32  1  0  0  0  0
  4  5  1  0  0  0  0
  4 33  1  0  0  0  0
  4 34  1  0  0  0  0
  5  9  1  0  0  0  0
  6  7  1  0  0  0  0
  6  8  2  0  0  0  0
  9 10  1  0  0  0  0
  9 35  1  0  0  0  0
  9 36  1  0  0  0  0
 10 11  1  0  0  0  0
 10 12  1  0  0  0  0
 10 37  1  1  0  0  0
 11 16  1  0  0  0  0
 12 13  1  0  0  0  0
 12 14  1  0  0  0  0
 12 38  1  1  0  0  0
 13 39  1  0  0  0  0
 14 15  1  0  0  0  0
 14 16  1  0  0  0  0
 14 40  1  6  0  0  0
 15 41  1  0  0  0  0
 16 17  1  0  0  0  0
 16 42  1  1  0  0  0
 17 18  1  0  0  0  0
 17 26  1  0  0  0  0
 18 19  2  0  0  0  0
 18 43  1  0  0  0  0
 19 20  1  0  0  0  0
 20 21  2  0  0  0  0
 20 26  1  0  0  0  0
 21 22  1  0  0  0  0
 21 23  1  0  0  0  0
 22 44  1  0  0  0  0
 22 45  1  0  0  0  0
 23 24  2  0  0  0  0
 24 25  1  0  0  0  0
 24 46  1  0  0  0  0
 25 26  2  0  0  0  0
M  CHG  2   1   1   7  -1
M  END
