5fjw_ligand
 OpenBabel08222323353D

148151  0  0  1  0  0  0  0  0999 V2000
   66.3410    5.9040  138.6030 N   0  3  0  0  0  0  0  0  0  0  0  0
   66.5440    4.4600  138.3360 C   0  0  2  0  0  0  0  0  0  0  0  0
   65.2110    3.6930  138.4310 C   0  0  0  0  0  0  0  0  0  0  0  0
   64.6650    3.5020  139.5350 O   0  0  0  0  0  0  0  0  0  0  0  0
   67.5800    3.9030  139.3320 C   0  0  0  0  0  0  0  0  0  0  0  0
   68.1980    2.5810  138.8780 C   0  0  0  0  0  0  0  0  0  0  0  0
   68.1210    2.2250  137.6780 O   0  5  0  0  0  0  0  0  0  0  0  0
   68.7800    1.8900  139.7400 O   0  0  0  0  0  0  0  0  0  0  0  0
   64.6970    3.2530  137.2750 N   0  0  0  0  0  0  0  0  0  0  0  0
   63.5370    2.3330  137.2380 C   0  0  2  0  0  0  0  0  0  0  0  0
   63.8400    0.9490  137.8910 C   0  0  0  0  0  0  0  0  0  0  0  0
   62.9300    0.1940  138.2390 O   0  0  0  0  0  0  0  0  0  0  0  0
   62.9710    2.1910  135.7890 C   0  0  0  0  0  0  0  0  0  0  0  0
   63.6830    1.0880  134.9230 C   0  0  0  0  0  0  0  0  0  0  0  0
   64.6350    0.4210  135.3820 O   0  5  0  0  0  0  0  0  0  0  0  0
   63.2700    0.8800  133.7550 O   0  0  0  0  0  0  0  0  0  0  0  0
   65.1270    0.6460  138.0530 N   0  0  0  0  0  0  0  0  0  0  0  0
   65.6210   -0.6380  138.5190 C   0  0  2  0  0  0  0  0  0  0  0  0
   65.9620   -0.6680  140.0180 C   0  0  0  0  0  0  0  0  0  0  0  0
   66.6180   -1.6020  140.4760 O   0  0  0  0  0  0  0  0  0  0  0  0
   66.8720   -0.9660  137.7050 C   0  0  0  0  0  0  0  0  0  0  0  0
   67.0990   -2.3810  137.4480 C   0  0  0  0  0  0  0  0  0  0  0  0
   68.0940   -3.1400  137.9490 C   0  0  0  0  0  0  0  0  0  0  0  0
   66.3350   -3.2260  136.5830 C   0  0  0  0  0  0  0  0  0  0  0  0
   68.0010   -4.4240  137.4670 N   0  0  0  0  0  0  0  0  0  0  0  0
   66.9240   -4.5050  136.6250 C   0  0  0  0  0  0  0  0  0  0  0  0
   65.2010   -3.0310  135.7890 C   0  0  0  0  0  0  0  0  0  0  0  0
   66.4180   -5.5920  135.9000 C   0  0  0  0  0  0  0  0  0  0  0  0
   64.7050   -4.1080  135.0560 C   0  0  0  0  0  0  0  0  0  0  0  0
   65.3160   -5.3700  135.1190 C   0  0  0  0  0  0  0  0  0  0  0  0
   65.5640    0.3570  140.7730 N   0  0  0  0  0  0  0  0  0  0  0  0
   65.5490    0.2800  142.2410 C   0  0  2  0  0  0  0  0  0  0  0  0
   64.1590    0.6200  142.7820 C   0  0  0  0  0  0  0  0  0  0  0  0
   63.6530    1.7430  142.6320 O   0  0  0  0  0  0  0  0  0  0  0  0
   66.6190    1.1890  142.8720 C   0  0  0  0  0  0  0  0  0  0  0  0
   67.9200    0.4470  143.1600 C   0  0  0  0  0  0  0  0  0  0  0  0
   68.1990    0.0750  144.2990 O   0  0  0  0  0  0  0  0  0  0  0  0
   68.7040    0.1970  142.1140 N   0  0  0  0  0  0  0  0  0  0  0  0
   63.5360   -0.3780  143.3820 N   0  0  0  0  0  0  0  0  0  0  0  0
   62.2200   -0.2330  143.9880 C   0  0  2  0  0  0  0  0  0  0  0  0
   62.1260   -1.3520  145.0290 C   0  0  0  0  0  0  0  0  0  0  0  0
   62.8060   -2.3620  144.8670 O   0  0  0  0  0  0  0  0  0  0  0  0
   61.1290   -0.3280  142.9110 C   0  0  0  0  0  0  0  0  0  0  0  0
   61.1640   -1.5840  142.0530 C   0  0  0  0  0  0  0  0  0  0  0  0
   61.8120   -1.7640  140.8560 C   0  0  0  0  0  0  0  0  0  0  0  0
   60.5190   -2.7990  142.3350 C   0  0  0  0  0  0  0  0  0  0  0  0
   61.6110   -3.0270  140.3940 N   0  0  0  0  0  0  0  0  0  0  0  0
   60.8180   -3.6860  141.2880 C   0  0  0  0  0  0  0  0  0  0  0  0
   59.7360   -3.2400  143.3890 C   0  0  0  0  0  0  0  0  0  0  0  0
   60.3420   -4.9810  141.2600 C   0  0  0  0  0  0  0  0  0  0  0  0
   59.2700   -4.5180  143.3690 C   0  0  0  0  0  0  0  0  0  0  0  0
   59.5690   -5.3840  142.3120 C   0  0  0  0  0  0  0  0  0  0  0  0
   61.3690   -1.1810  146.1160 N   0  0  0  0  0  0  0  0  0  0  0  0
   61.3940   -2.2190  147.1700 C   0  0  2  0  0  0  0  0  0  0  0  0
   60.0690   -2.9030  147.2420 C   0  0  0  0  0  0  0  0  0  0  0  0
   59.0560   -2.2960  146.9840 O   0  0  0  0  0  0  0  0  0  0  0  0
   61.8660   -1.7200  148.5760 C   0  0  0  0  0  0  0  0  0  0  0  0
   63.3900   -1.7360  148.8650 C   0  0  0  0  0  0  0  0  0  0  0  0
   64.2150   -2.8550  148.1620 C   0  0  0  0  0  0  0  0  0  0  0  0
   63.7410   -4.0150  147.9510 O   0  5  0  0  0  0  0  0  0  0  0  0
   65.3890   -2.5770  147.8170 O   0  0  0  0  0  0  0  0  0  0  0  0
   60.1020   -4.1850  147.5820 N   0  0  0  0  0  0  0  0  0  0  0  0
   58.8850   -4.9350  147.7630 C   0  0  2  0  0  0  0  0  0  0  0  0
   58.2910   -4.3580  149.0230 C   0  0  0  0  0  0  0  0  0  0  0  0
   59.0080   -4.0640  149.9870 O   0  0  0  0  0  0  0  0  0  0  0  0
   59.1310   -6.4230  147.9330 C   0  0  0  0  0  0  0  0  0  0  0  0
   60.1290   -7.0310  146.9600 C   0  0  0  0  0  0  0  0  0  0  0  0
   59.9810   -9.0010  147.0500 Se  0  0  0  0  0  0  0  0  0  0  0  0
   61.8170   -9.5360  147.5500 C   0  0  0  0  0  0  0  0  0  0  0  0
   56.9790   -4.1750  149.0150 N   0  0  0  0  0  0  0  0  0  0  0  0
   56.2580   -3.6130  150.1420 C   0  0  2  0  0  0  0  0  0  0  0  0
   55.5160   -4.7200  150.9030 C   0  0  0  0  0  0  0  0  0  0  0  0
   55.7700   -5.8980  150.6440 O   0  0  0  0  0  0  0  0  0  0  0  0
   55.3840   -2.4670  149.6420 C   0  0  0  0  0  0  0  0  0  0  0  0
   56.2510   -1.2800  149.2200 C   0  0  0  0  0  0  0  0  0  0  0  0
   55.4760    0.0000  148.8850 C   0  0  0  0  0  0  0  0  0  0  0  0
   54.2180    0.0190  148.8570 O   0  5  0  0  0  0  0  0  0  0  0  0
   56.1490    1.0200  148.6300 O   0  0  0  0  0  0  0  0  0  0  0  0
   54.6740   -4.3430  151.8790 N   0  0  0  0  0  0  0  0  0  0  0  0
   54.0570   -5.2620  152.8770 C   0  0  2  0  0  0  0  0  0  0  0  0
   55.1090   -5.9620  153.7820 C   0  0  0  0  0  0  0  0  0  0  0  0
   56.3160   -5.6940  153.7330 O   0  5  0  0  0  0  0  0  0  0  0  0
   53.0970   -6.2930  152.2190 C   0  0  0  0  0  0  0  0  0  0  0  0
   51.6500   -5.7920  152.1030 C   0  0  0  0  0  0  0  0  0  0  0  0
   51.4270   -4.5950  151.8000 O   0  5  0  0  0  0  0  0  0  0  0  0
   50.7350   -6.6250  152.2920 O   0  0  0  0  0  0  0  0  0  0  0  0
   54.7920   -6.8160  154.6180 O   0  0  0  0  0  0  0  0  0  0  0  0
   67.2240    6.3855  138.5358 H   0  0  0  0  0  0  0  0  0  0  0  0
   65.9623    6.0245  139.5294 H   0  0  0  0  0  0  0  0  0  0  0  0
   65.6987    6.2840  137.9254 H   0  0  0  0  0  0  0  0  0  0  0  0
   66.9385    4.3418  137.3160 H   0  0  0  0  0  0  0  0  0  0  0  0
   67.0836    3.7430  140.3005 H   0  0  0  0  0  0  0  0  0  0  0  0
   68.3850    4.6433  139.4504 H   0  0  0  0  0  0  0  0  0  0  0  0
   65.1074    3.5537  136.4141 H   0  0  0  0  0  0  0  0  0  0  0  0
   62.7457    2.7980  137.8443 H   0  0  0  0  0  0  0  0  0  0  0  0
   63.0858    3.1581  135.2777 H   0  0  0  0  0  0  0  0  0  0  0  0
   61.9028    1.9379  135.8593 H   0  0  0  0  0  0  0  0  0  0  0  0
   65.8011    1.3528  137.8385 H   0  0  0  0  0  0  0  0  0  0  0  0
   64.8503   -1.3993  138.3283 H   0  0  0  0  0  0  0  0  0  0  0  0
   67.7437   -0.5767  138.2514 H   0  0  0  0  0  0  0  0  0  0  0  0
   66.7889   -0.4544  136.7348 H   0  0  0  0  0  0  0  0  0  0  0  0
   68.8611   -2.7868  138.6366 H   0  0  0  0  0  0  0  0  0  0  0  0
   68.6377   -5.1990  137.7010 H   0  0  0  0  0  0  0  0  0  0  0  0
   64.7172   -2.0620  135.7442 H   0  0  0  0  0  0  0  0  0  0  0  0
   66.8811   -6.5705  135.9554 H   0  0  0  0  0  0  0  0  0  0  0  0
   63.8332   -3.9685  134.4271 H   0  0  0  0  0  0  0  0  0  0  0  0
   64.9061   -6.1870  134.5362 H   0  0  0  0  0  0  0  0  0  0  0  0
   65.2674    1.2019  140.3278 H   0  0  0  0  0  0  0  0  0  0  0  0
   65.7801   -0.7571  142.5257 H   0  0  0  0  0  0  0  0  0  0  0  0
   66.2264    1.5924  143.8171 H   0  0  0  0  0  0  0  0  0  0  0  0
   66.8311    2.0171  142.1798 H   0  0  0  0  0  0  0  0  0  0  0  0
   69.5698   -0.2866  142.2424 H   0  0  0  0  0  0  0  0  0  0  0  0
   68.4272    0.4927  141.1997 H   0  0  0  0  0  0  0  0  0  0  0  0
   63.9866   -1.2699  143.4218 H   0  0  0  0  0  0  0  0  0  0  0  0
   62.1380    0.7436  144.4874 H   0  0  0  0  0  0  0  0  0  0  0  0
   61.2339    0.5408  142.2445 H   0  0  0  0  0  0  0  0  0  0  0  0
   60.1516   -0.2883  143.4141 H   0  0  0  0  0  0  0  0  0  0  0  0
   62.4032   -1.0031  140.3485 H   0  0  0  0  0  0  0  0  0  0  0  0
   61.9914   -3.4185  139.5205 H   0  0  0  0  0  0  0  0  0  0  0  0
   59.4989   -2.5789  144.2147 H   0  0  0  0  0  0  0  0  0  0  0  0
   60.5716   -5.6499  140.4385 H   0  0  0  0  0  0  0  0  0  0  0  0
   58.6549   -4.8722  144.1883 H   0  0  0  0  0  0  0  0  0  0  0  0
   59.1795   -6.3955  142.3279 H   0  0  0  0  0  0  0  0  0  0  0  0
   60.7964   -0.3672  146.2155 H   0  0  0  0  0  0  0  0  0  0  0  0
   62.1298   -2.9714  146.8498 H   0  0  0  0  0  0  0  0  0  0  0  0
   61.3803   -2.3550  149.3316 H   0  0  0  0  0  0  0  0  0  0  0  0
   61.5193   -0.6825  148.6913 H   0  0  0  0  0  0  0  0  0  0  0  0
   63.5239   -1.8530  149.9505 H   0  0  0  0  0  0  0  0  0  0  0  0
   63.8014   -0.7667  148.5471 H   0  0  0  0  0  0  0  0  0  0  0  0
   60.9840   -4.6372  147.7145 H   0  0  0  0  0  0  0  0  0  0  0  0
   58.2114   -4.7793  146.9074 H   0  0  0  0  0  0  0  0  0  0  0  0
   58.1705   -6.9434  147.8043 H   0  0  0  0  0  0  0  0  0  0  0  0
   59.5054   -6.5914  148.9535 H   0  0  0  0  0  0  0  0  0  0  0  0
   61.1487   -6.7234  147.2349 H   0  0  0  0  0  0  0  0  0  0  0  0
   59.9057   -6.6892  145.9386 H   0  0  0  0  0  0  0  0  0  0  0  0
   61.8696  -10.6315  147.6342 H   0  0  0  0  0  0  0  0  0  0  0  0
   62.0813   -9.0809  148.5159 H   0  0  0  0  0  0  0  0  0  0  0  0
   62.5218   -9.1934  146.7781 H   0  0  0  0  0  0  0  0  0  0  0  0
   56.4639   -4.4350  148.1982 H   0  0  0  0  0  0  0  0  0  0  0  0
   56.9917   -3.1821  150.8392 H   0  0  0  0  0  0  0  0  0  0  0  0
   54.7046   -2.1513  150.4474 H   0  0  0  0  0  0  0  0  0  0  0  0
   54.7949   -2.8104  148.7789 H   0  0  0  0  0  0  0  0  0  0  0  0
   56.8240   -1.5754  148.3287 H   0  0  0  0  0  0  0  0  0  0  0  0
   56.9444   -1.0537  150.0434 H   0  0  0  0  0  0  0  0  0  0  0  0
   54.4435   -3.3719  151.9408 H   0  0  0  0  0  0  0  0  0  0  0  0
   53.4412   -4.6347  153.5383 H   0  0  0  0  0  0  0  0  0  0  0  0
   53.1007   -7.2100  152.8266 H   0  0  0  0  0  0  0  0  0  0  0  0
   53.4690   -6.5207  151.2092 H   0  0  0  0  0  0  0  0  0  0  0  0
  1  2  1  0  0  0  0
  1 88  1  0  0  0  0
  1 89  1  0  0  0  0
  1 90  1  0  0  0  0
  2  3  1  0  0  0  0
  2  5  1  0  0  0  0
  2 91  1  6  0  0  0
  3  4  2  0  0  0  0
  3  9  1  0  0  0  0
  5  6  1  0  0  0  0
  5 92  1  0  0  0  0
  5 93  1  0  0  0  0
  6  7  1  0  0  0  0
  6  8  2  0  0  0  0
  9 10  1  0  0  0  0
  9 94  1  0  0  0  0
 10 11  1  0  0  0  0
 10 13  1  0  0  0  0
 10 95  1  1  0  0  0
 11 12  2  0  0  0  0
 11 17  1  0  0  0  0
 13 14  1  0  0  0  0
 13 96  1  0  0  0  0
 13 97  1  0  0  0  0
 14 15  1  0  0  0  0
 14 16  2  0  0  0  0
 17 18  1  0  0  0  0
 17 98  1  0  0  0  0
 18 19  1  0  0  0  0
 18 21  1  0  0  0  0
 18 99  1  6  0  0  0
 19 20  2  0  0  0  0
 19 31  1  0  0  0  0
 21 22  1  0  0  0  0
 21100  1  0  0  0  0
 21101  1  0  0  0  0
 22 23  2  0  0  0  0
 22 24  1  0  0  0  0
 23 25  1  0  0  0  0
 23102  1  0  0  0  0
 24 26  2  0  0  0  0
 24 27  1  0  0  0  0
 25 26  1  0  0  0  0
 25103  1  0  0  0  0
 26 28  1  0  0  0  0
 27 29  2  0  0  0  0
 27104  1  0  0  0  0
 28 30  2  0  0  0  0
 28105  1  0  0  0  0
 29 30  1  0  0  0  0
 29106  1  0  0  0  0
 30107  1  0  0  0  0
 31 32  1  0  0  0  0
 31108  1  0  0  0  0
 32 33  1  0  0  0  0
 32 35  1  0  0  0  0
 32109  1  1  0  0  0
 33 34  2  0  0  0  0
 33 39  1  0  0  0  0
 35 36  1  0  0  0  0
 35110  1  0  0  0  0
 35111  1  0  0  0  0
 36 37  2  0  0  0  0
 36 38  1  0  0  0  0
 38112  1  0  0  0  0
 38113  1  0  0  0  0
 39 40  1  0  0  0  0
 39114  1  0  0  0  0
 40 41  1  0  0  0  0
 40 43  1  0  0  0  0
 40115  1  1  0  0  0
 41 42  2  0  0  0  0
 41 53  1  0  0  0  0
 43 44  1  0  0  0  0
 43116  1  0  0  0  0
 43117  1  0  0  0  0
 44 45  2  0  0  0  0
 44 46  1  0  0  0  0
 45 47  1  0  0  0  0
 45118  1  0  0  0  0
 46 48  2  0  0  0  0
 46 49  1  0  0  0  0
 47 48  1  0  0  0  0
 47119  1  0  0  0  0
 48 50  1  0  0  0  0
 49 51  2  0  0  0  0
 49120  1  0  0  0  0
 50 52  2  0  0  0  0
 50121  1  0  0  0  0
 51 52  1  0  0  0  0
 51122  1  0  0  0  0
 52123  1  0  0  0  0
 53 54  1  0  0  0  0
 53124  1  0  0  0  0
 54 55  1  0  0  0  0
 54 57  1  0  0  0  0
 54125  1  6  0  0  0
 55 56  2  0  0  0  0
 55 62  1  0  0  0  0
 57 58  1  0  0  0  0
 57126  1  0  0  0  0
 57127  1  0  0  0  0
 58 59  1  0  0  0  0
 58128  1  0  0  0  0
 58129  1  0  0  0  0
 59 60  1  0  0  0  0
 59 61  2  0  0  0  0
 62 63  1  0  0  0  0
 62130  1  0  0  0  0
 63 64  1  0  0  0  0
 63 66  1  0  0  0  0
 63131  1  6  0  0  0
 64 65  2  0  0  0  0
 64 70  1  0  0  0  0
 66 67  1  0  0  0  0
 66132  1  0  0  0  0
 66133  1  0  0  0  0
 67 68  1  0  0  0  0
 67134  1  0  0  0  0
 67135  1  0  0  0  0
 68 69  1  0  0  0  0
 69136  1  0  0  0  0
 69137  1  0  0  0  0
 69138  1  0  0  0  0
 70 71  1  0  0  0  0
 70139  1  0  0  0  0
 71 72  1  0  0  0  0
 71 74  1  0  0  0  0
 71140  1  1  0  0  0
 72 73  2  0  0  0  0
 72 79  1  0  0  0  0
 74 75  1  0  0  0  0
 74141  1  0  0  0  0
 74142  1  0  0  0  0
 75 76  1  0  0  0  0
 75143  1  0  0  0  0
 75144  1  0  0  0  0
 76 77  1  0  0  0  0
 76 78  2  0  0  0  0
 79 80  1  0  0  0  0
 79145  1  0  0  0  0
 80 81  1  0  0  0  0
 80 83  1  0  0  0  0
 80146  1  1  0  0  0
 81 82  1  0  0  0  0
 81 87  2  0  0  0  0
 83 84  1  0  0  0  0
 83147  1  0  0  0  0
 83148  1  0  0  0  0
 84 85  1  0  0  0  0
 84 86  2  0  0  0  0
M  CHG  7   1   1   7  -1  15  -1  60  -1  77  -1  82  -1  85  -1
M  END
