5lpr_ligand
 OpenBabel08222323353D

 49 49  0  0  1  0  0  0  0  0999 V2000
   13.9020   42.0570   18.2560 N   0  3  0  0  0  0  0  0  0  0  0  0
   14.4150   40.6780   18.0700 C   0  0  2  0  0  0  0  0  0  0  0  0
   13.5250   39.4980   18.4480 C   0  0  0  0  0  0  0  0  0  0  0  0
   12.8230   39.5030   19.4780 O   0  0  0  0  0  0  0  0  0  0  0  0
   15.7280   40.4580   18.8120 C   0  0  0  0  0  0  0  0  0  0  0  0
   13.5630   38.4850   17.5990 N   0  0  0  0  0  0  0  0  0  0  0  0
   12.7270   37.2850   17.8560 C   0  0  2  0  0  0  0  0  0  0  0  0
   13.6010   36.0760   17.4920 C   0  0  0  0  0  0  0  0  0  0  0  0
   14.4650   36.3430   16.6620 O   0  0  0  0  0  0  0  0  0  0  0  0
   11.4930   37.3440   16.9870 C   0  0  0  0  0  0  0  0  0  0  0  0
   13.3030   34.9450   18.1060 N   0  0  0  0  0  0  0  0  0  0  0  0
   14.0870   33.7280   17.7800 C   0  0  2  0  0  0  0  0  0  0  0  0
   13.8220   33.3140   16.3330 C   0  0  0  0  0  0  0  0  0  0  0  0
   12.6300   33.4940   15.9170 O   0  0  0  0  0  0  0  0  0  0  0  0
   13.4620   32.7120   18.7410 C   0  0  0  0  0  0  0  0  0  0  0  0
   12.6230   33.4770   19.7270 C   0  0  0  0  0  0  0  0  0  0  0  0
   12.1690   34.7540   19.0330 C   0  0  0  0  0  0  0  0  0  0  0  0
   14.7600   32.7510   15.5990 N   0  0  0  0  0  0  0  0  0  0  0  0
   14.5530   32.3020   14.1920 C   0  0  1  0  0  0  0  0  0  0  0  0
   15.4040   33.2070   13.2610 C   0  0  0  0  0  0  0  0  0  0  0  0
   14.8050   30.7660   14.0360 B   0  0  0  0  0  0  0  0  0  0  0  0
   14.8240   30.2030   12.6530 O   0  0  0  0  0  0  0  0  0  0  0  0
   13.9120   29.9530   14.9440 O   0  0  0  0  0  0  0  0  0  0  0  0
   14.6033   42.7188   17.9623 H   0  0  0  0  0  0  0  0  0  0  0  0
   13.6854   42.2066   19.2290 H   0  0  0  0  0  0  0  0  0  0  0  0
   13.0687   42.1830   17.7031 H   0  0  0  0  0  0  0  0  0  0  0  0
   14.6148   40.5851   16.9923 H   0  0  0  0  0  0  0  0  0  0  0  0
   16.0731   39.4264   18.6486 H   0  0  0  0  0  0  0  0  0  0  0  0
   15.5739   40.6270   19.8880 H   0  0  0  0  0  0  0  0  0  0  0  0
   16.4847   41.1618   18.4349 H   0  0  0  0  0  0  0  0  0  0  0  0
   14.1499   38.5267   16.7904 H   0  0  0  0  0  0  0  0  0  0  0  0
   12.4317   37.2371   18.9145 H   0  0  0  0  0  0  0  0  0  0  0  0
   10.8702   36.4568   17.1739 H   0  0  0  0  0  0  0  0  0  0  0  0
   11.7908   37.3665   15.9283 H   0  0  0  0  0  0  0  0  0  0  0  0
   10.9193   38.2516   17.2260 H   0  0  0  0  0  0  0  0  0  0  0  0
   15.1647   33.8625   17.9543 H   0  0  0  0  0  0  0  0  0  0  0  0
   14.2528   32.1600   19.2699 H   0  0  0  0  0  0  0  0  0  0  0  0
   12.8322   32.0045   18.1817 H   0  0  0  0  0  0  0  0  0  0  0  0
   13.2188   33.7234   20.6183 H   0  0  0  0  0  0  0  0  0  0  0  0
   11.7495   32.8780   20.0239 H   0  0  0  0  0  0  0  0  0  0  0  0
   11.2193   34.6136   18.4960 H   0  0  0  0  0  0  0  0  0  0  0  0
   12.0707   35.5918   19.7390 H   0  0  0  0  0  0  0  0  0  0  0  0
   15.6623   32.6171   16.0087 H   0  0  0  0  0  0  0  0  0  0  0  0
   13.4974   32.4736   13.9348 H   0  0  0  0  0  0  0  0  0  0  0  0
   15.1541   34.2620   13.4468 H   0  0  0  0  0  0  0  0  0  0  0  0
   15.1887   32.9586   12.2113 H   0  0  0  0  0  0  0  0  0  0  0  0
   16.4721   33.0418   13.4653 H   0  0  0  0  0  0  0  0  0  0  0  0
   15.1495   29.3109   12.6799 H   0  0  0  0  0  0  0  0  0  0  0  0
   13.9184   30.3323   15.8150 H   0  0  0  0  0  0  0  0  0  0  0  0
  1  2  1  0  0  0  0
  1 24  1  0  0  0  0
  1 25  1  0  0  0  0
  1 26  1  0  0  0  0
  2  3  1  0  0  0  0
  2  5  1  0  0  0  0
  2 27  1  6  0  0  0
  3  4  2  0  0  0  0
  3  6  1  0  0  0  0
  5 28  1  0  0  0  0
  5 29  1  0  0  0  0
  5 30  1  0  0  0  0
  6  7  1  0  0  0  0
  6 31  1  0  0  0  0
  7  8  1  0  0  0  0
  7 10  1  0  0  0  0
  7 32  1  1  0  0  0
  8  9  2  0  0  0  0
  8 11  1  0  0  0  0
 10 33  1  0  0  0  0
 10 34  1  0  0  0  0
 10 35  1  0  0  0  0
 11 12  1  0  0  0  0
 11 17  1  0  0  0  0
 12 13  1  0  0  0  0
 12 15  1  0  0  0  0
 12 36  1  1  0  0  0
 13 14  2  0  0  0  0
 13 18  1  0  0  0  0
 15 16  1  0  0  0  0
 15 37  1  0  0  0  0
 15 38  1  0  0  0  0
 16 17  1  0  0  0  0
 16 39  1  0  0  0  0
 16 40  1  0  0  0  0
 17 41  1  0  0  0  0
 17 42  1  0  0  0  0
 18 19  1  0  0  0  0
 18 43  1  0  0  0  0
 19 20  1  0  0  0  0
 19 21  1  0  0  0  0
 19 44  1  6  0  0  0
 20 45  1  0  0  0  0
 20 46  1  0  0  0  0
 20 47  1  0  0  0  0
 21 22  1  0  0  0  0
 21 23  1  0  0  0  0
 22 48  1  0  0  0  0
 23 49  1  0  0  0  0
M  CHG  1   1   1
M  END
