5prc_ligand
 OpenBabel08222323353D

 28 28  0  0  0  0  0  0  0  0999 V2000
  132.1360   70.9300   -2.6790 N   0  0  0  0  0  0  0  0  0  0  0  0
  131.6490   69.8030   -2.2030 C   0  0  0  0  0  0  0  0  0  0  0  0
  131.2140   69.8750   -0.5110 Cl  0  0  0  0  0  0  0  0  0  0  0  0
  131.4490   68.6260   -2.7890 N   0  0  0  0  0  0  0  0  0  0  0  0
  131.8420   68.6520   -4.1050 C   0  0  0  0  0  0  0  0  0  0  0  0
  132.3550   69.7100   -4.7360 N   0  0  0  0  0  0  0  0  0  0  0  0
  132.4800   70.8130   -3.9950 C   0  0  0  0  0  0  0  0  0  0  0  0
  131.7170   67.5200   -4.8420 N   0  0  0  0  0  0  0  0  0  0  0  0
  131.1960   66.2100   -4.4520 C   0  0  0  0  0  0  0  0  0  0  0  0
  131.8540   65.6470   -3.1750 C   0  0  0  0  0  0  0  0  0  0  0  0
  129.6910   66.2090   -4.4660 C   0  0  0  0  0  0  0  0  0  0  0  0
  132.9920   71.9220   -4.5770 N   0  0  0  0  0  0  0  0  0  0  0  0
  133.2070   73.2080   -3.9260 C   0  0  0  0  0  0  0  0  0  0  0  0
  133.8530   74.1130   -4.9060 C   0  0  0  0  0  0  0  0  0  0  0  0
  132.0354   67.5937   -5.8188 H   0  0  0  0  0  0  0  0  0  0  0  0
  131.4952   65.5175   -5.2525 H   0  0  0  0  0  0  0  0  0  0  0  0
  131.4177   64.6649   -2.9402 H   0  0  0  0  0  0  0  0  0  0  0  0
  131.6770   66.3368   -2.3366 H   0  0  0  0  0  0  0  0  0  0  0  0
  132.9364   65.5378   -3.3378 H   0  0  0  0  0  0  0  0  0  0  0  0
  129.3223   65.2158   -4.1701 H   0  0  0  0  0  0  0  0  0  0  0  0
  129.3336   66.4459   -5.4790 H   0  0  0  0  0  0  0  0  0  0  0  0
  129.3172   66.9644   -3.7592 H   0  0  0  0  0  0  0  0  0  0  0  0
  133.2536   71.8508   -5.5707 H   0  0  0  0  0  0  0  0  0  0  0  0
  133.8597   73.0789   -3.0500 H   0  0  0  0  0  0  0  0  0  0  0  0
  132.2431   73.6306   -3.6061 H   0  0  0  0  0  0  0  0  0  0  0  0
  134.0274   75.0939   -4.4397 H   0  0  0  0  0  0  0  0  0  0  0  0
  133.1973   74.2343   -5.7808 H   0  0  0  0  0  0  0  0  0  0  0  0
  134.8138   73.6826   -5.2248 H   0  0  0  0  0  0  0  0  0  0  0  0
  1  2  2  0  0  0  0
  1  7  1  0  0  0  0
  2  3  1  0  0  0  0
  2  4  1  0  0  0  0
  4  5  2  0  0  0  0
  5  6  1  0  0  0  0
  5  8  1  0  0  0  0
  6  7  2  0  0  0  0
  7 12  1  0  0  0  0
  8  9  1  0  0  0  0
  8 15  1  0  0  0  0
  9 10  1  0  0  0  0
  9 11  1  0  0  0  0
  9 16  1  0  0  0  0
 10 17  1  0  0  0  0
 10 18  1  0  0  0  0
 10 19  1  0  0  0  0
 11 20  1  0  0  0  0
 11 21  1  0  0  0  0
 11 22  1  0  0  0  0
 12 13  1  0  0  0  0
 12 23  1  0  0  0  0
 13 14  1  0  0  0  0
 13 24  1  0  0  0  0
 13 25  1  0  0  0  0
 14 26  1  0  0  0  0
 14 27  1  0  0  0  0
 14 28  1  0  0  0  0
M  END
