6apr_ligand
 OpenBabel08222323353D

110109  0  0  1  0  0  0  0  0999 V2000
   52.1939   64.0107  103.4933 O   0  5  0  0  0  0  0  0  0  0  0  0
   39.2764   72.3532  100.6166 H   0  0  0  0  0  0  0  0  0  0  0  0
   38.6082   70.7676  100.1007 H   0  0  0  0  0  0  0  0  0  0  0  0
   36.5660   71.2366  100.9960 H   0  0  0  0  0  0  0  0  0  0  0  0
   36.0051   73.2390   99.5843 H   0  0  0  0  0  0  0  0  0  0  0  0
   37.1152   72.0943   98.7574 H   0  0  0  0  0  0  0  0  0  0  0  0
   37.7575   73.6152   99.4652 H   0  0  0  0  0  0  0  0  0  0  0  0
   37.0946   72.5281  103.0203 H   0  0  0  0  0  0  0  0  0  0  0  0
   35.8677   73.3284  101.9807 H   0  0  0  0  0  0  0  0  0  0  0  0
   37.5622   73.9246  101.9918 H   0  0  0  0  0  0  0  0  0  0  0  0
   38.4754   69.1197  101.5548 H   0  0  0  0  0  0  0  0  0  0  0  0
   40.7501   69.2236  103.5612 H   0  0  0  0  0  0  0  0  0  0  0  0
   38.0756   68.6425  103.9710 H   0  0  0  0  0  0  0  0  0  0  0  0
   38.0211   66.3855  104.8893 H   0  0  0  0  0  0  0  0  0  0  0  0
   39.6282   66.0552  104.1582 H   0  0  0  0  0  0  0  0  0  0  0  0
   38.2176   66.4094  103.1040 H   0  0  0  0  0  0  0  0  0  0  0  0
   39.7729   69.5811  105.5175 H   0  0  0  0  0  0  0  0  0  0  0  0
   40.4502   67.9312  105.7310 H   0  0  0  0  0  0  0  0  0  0  0  0
   38.7683   68.2861  106.2524 H   0  0  0  0  0  0  0  0  0  0  0  0
   42.3626   67.7376  103.1274 H   0  0  0  0  0  0  0  0  0  0  0  0
   41.8682   65.6899  101.0872 H   0  0  0  0  0  0  0  0  0  0  0  0
   42.3355   66.7188   99.3499 H   0  0  0  0  0  0  0  0  0  0  0  0
   43.5581   68.8045   98.9679 H   0  0  0  0  0  0  0  0  0  0  0  0
   43.8873   68.9107  100.7305 H   0  0  0  0  0  0  0  0  0  0  0  0
   42.1960   68.9643  100.1279 H   0  0  0  0  0  0  0  0  0  0  0  0
   44.3665   65.3271   99.6298 H   0  0  0  0  0  0  0  0  0  0  0  0
   45.2479   66.7970  100.1672 H   0  0  0  0  0  0  0  0  0  0  0  0
   44.5577   66.7190   98.5107 H   0  0  0  0  0  0  0  0  0  0  0  0
   42.2016   64.2854  102.2714 H   0  0  0  0  0  0  0  0  0  0  0  0
   44.6734   63.8851  103.8726 H   0  0  0  0  0  0  0  0  0  0  0  0
   43.3537   62.6590  105.4123 H   0  0  0  0  0  0  0  0  0  0  0  0
   41.9505   62.6206  104.2915 H   0  0  0  0  0  0  0  0  0  0  0  0
   41.8665   65.1768  104.5112 H   0  0  0  0  0  0  0  0  0  0  0  0
   40.6750   65.0442  106.7130 H   0  0  0  0  0  0  0  0  0  0  0  0
   41.4420   63.4503  107.0260 H   0  0  0  0  0  0  0  0  0  0  0  0
   40.2817   63.6374  105.6676 H   0  0  0  0  0  0  0  0  0  0  0  0
   44.1713   65.5032  105.4026 H   0  0  0  0  0  0  0  0  0  0  0  0
   43.7286   64.5864  106.8825 H   0  0  0  0  0  0  0  0  0  0  0  0
   42.9363   66.1594  106.5299 H   0  0  0  0  0  0  0  0  0  0  0  0
   44.4224   61.4878  103.3796 H   0  0  0  0  0  0  0  0  0  0  0  0
   43.1244   60.9401  101.5256 H   0  0  0  0  0  0  0  0  0  0  0  0
   45.0210   63.1144  100.9249 H   0  0  0  0  0  0  0  0  0  0  0  0
   45.2831   61.3458  101.0978 H   0  0  0  0  0  0  0  0  0  0  0  0
   46.6736   60.6402  102.8530 H   0  0  0  0  0  0  0  0  0  0  0  0
   48.8997   62.3481  103.6274 H   0  0  0  0  0  0  0  0  0  0  0  0
   50.0664   60.2720  104.1831 H   0  0  0  0  0  0  0  0  0  0  0  0
   48.7038   59.3244  103.4960 H   0  0  0  0  0  0  0  0  0  0  0  0
   48.4388   60.3626  104.9377 H   0  0  0  0  0  0  0  0  0  0  0  0
   49.0029   63.3643  101.7297 H   0  0  0  0  0  0  0  0  0  0  0  0
   50.3293   62.0500   99.4011 H   0  0  0  0  0  0  0  0  0  0  0  0
   50.0514   64.3025   98.3934 H   0  0  0  0  0  0  0  0  0  0  0  0
   48.8811   64.5995   99.7234 H   0  0  0  0  0  0  0  0  0  0  0  0
   48.5100   63.5196   97.1125 H   0  0  0  0  0  0  0  0  0  0  0  0
   46.7940   61.8189   97.6468 H   0  0  0  0  0  0  0  0  0  0  0  0
   47.2218   61.9027   99.3894 H   0  0  0  0  0  0  0  0  0  0  0  0
   48.4057   61.2546   98.2039 H   0  0  0  0  0  0  0  0  0  0  0  0
   47.2836   65.4097   98.3306 H   0  0  0  0  0  0  0  0  0  0  0  0
   46.6252   64.2038   99.4877 H   0  0  0  0  0  0  0  0  0  0  0  0
   46.1483   64.1414   97.7570 H   0  0  0  0  0  0  0  0  0  0  0  0
   51.8632   62.7591  101.1914 H   0  0  0  0  0  0  0  0  0  0  0  0
   53.2174   63.8861   99.6777 H   0  0  0  0  0  0  0  0  0  0  0  0
   50.4481   64.8728  101.8240 H   0  0  0  0  0  0  0  0  0  0  0  0
   51.6526   65.6533  100.7439 H   0  0  0  0  0  0  0  0  0  0  0  0
   38.6450   71.5040  100.9170 C   0  0  0  0  0  0  0  0  0  0  0  0
   37.2650   72.0830  100.9250 C   0  0  0  0  0  0  0  0  0  0  0  0
   37.0180   72.8100   99.5870 C   0  0  0  0  0  0  0  0  0  0  0  0
   36.9240   73.0310  102.0570 C   0  0  0  0  0  0  0  0  0  0  0  0
   39.4620   70.8180  101.9670 C   0  0  0  0  0  0  0  0  0  0  0  0
   40.3590   71.3930  102.6390 O   0  0  0  0  0  0  0  0  0  0  0  0
   39.2070   69.5250  102.1030 N   0  0  0  0  0  0  0  0  0  0  0  0
   39.9690   68.6480  103.0430 C   0  0  2  0  0  0  0  0  0  0  0  0
   40.6500   67.6930  102.0640 C   0  0  0  0  0  0  0  0  0  0  0  0
   40.0140   67.3510  101.0410 O   0  0  0  0  0  0  0  0  0  0  0  0
   39.0310   68.1180  104.1200 C   0  0  0  0  0  0  0  0  0  0  0  0
   38.7020   66.6410  104.0640 C   0  0  0  0  0  0  0  0  0  0  0  0
   39.5410   68.5060  105.5010 C   0  0  0  0  0  0  0  0  0  0  0  0
   41.8990   67.3660  102.3230 N   0  0  0  0  0  0  0  0  0  0  0  0
   42.6160   66.4330  101.4010 C   0  0  2  0  0  0  0  0  0  0  0  0
   43.6010   65.6680  102.2770 C   0  0  0  0  0  0  0  0  0  0  0  0
   44.6980   66.1270  102.5800 O   0  0  0  0  0  0  0  0  0  0  0  0
   43.1070   67.0170  100.0750 C   0  0  0  0  0  0  0  0  0  0  0  0
   43.1930   68.5280   99.9680 C   0  0  0  0  0  0  0  0  0  0  0  0
   44.4100   66.4240   99.5600 C   0  0  0  0  0  0  0  0  0  0  0  0
   43.1110   64.5030  102.6260 N   0  0  0  0  0  0  0  0  0  0  0  0
   43.7320   63.4820  103.4710 C   0  0  1  0  0  0  0  0  0  0  0  0
   42.7990   63.2230  104.6480 C   0  0  0  0  0  0  0  0  0  0  0  0
   42.2430   64.5090  105.3000 C   0  0  0  0  0  0  0  0  0  0  0  0
   41.0760   64.1330  106.2450 C   0  0  0  0  0  0  0  0  0  0  0  0
   43.3490   65.2420  106.0850 C   0  0  0  0  0  0  0  0  0  0  0  0
   44.0900   62.2320  102.6410 C   0  0  1  0  0  0  0  0  0  0  0  0
   42.9050   61.7100  102.0370 O   0  0  0  0  0  0  0  0  0  0  0  0
   45.2090   62.3000  101.6400 C   0  0  0  0  0  0  0  0  0  0  0  0
   46.5140   62.5680  102.4030 C   0  0  0  0  0  0  0  0  0  0  0  0
   46.8060   63.7310  102.5660 O   0  0  0  0  0  0  0  0  0  0  0  0
   47.1900   61.4930  102.7750 N   0  0  0  0  0  0  0  0  0  0  0  0
   48.6310   61.4290  103.0860 C   0  0  2  0  0  0  0  0  0  0  0  0
   49.4080   61.4180  101.7700 C   0  0  0  0  0  0  0  0  0  0  0  0
   49.8910   60.4230  101.2350 O   0  0  0  0  0  0  0  0  0  0  0  0
   48.9840   60.2680  103.9870 C   0  0  0  0  0  0  0  0  0  0  0  0
   49.4570   62.6240  101.2340 N   0  0  0  0  0  0  0  0  0  0  0  0
   50.1240   62.9700   99.9680 C   0  0  1  0  0  0  0  0  0  0  0  0
   49.3160   63.8340   99.0640 C   0  0  0  0  0  0  0  0  0  0  0  0
   48.1780   63.4160   98.1560 C   0  0  0  0  0  0  0  0  0  0  0  0
   47.6090   61.9960   98.3640 C   0  0  0  0  0  0  0  0  0  0  0  0
   46.9690   64.3630   98.4550 C   0  0  0  0  0  0  0  0  0  0  0  0
   51.4780   63.5320  100.5100 C   0  0  1  0  0  0  0  0  0  0  0  0
   52.3740   63.5500   99.3980 O   0  0  0  0  0  0  0  0  0  0  0  0
   51.4450   64.7730  101.3700 C   0  0  0  0  0  0  0  0  0  0  0  0
   52.4890   64.6840  102.4700 C   0  0  0  0  0  0  0  0  0  0  0  0
   53.5890   65.2100  102.4450 O   0  0  0  0  0  0  0  0  0  0  0  0
 64  2  1  0  0  0  0
 64  3  1  0  0  0  0
 64 65  1  0  0  0  0
 65  4  1  0  0  0  0
 65 66  1  0  0  0  0
 65 67  1  0  0  0  0
 66  5  1  0  0  0  0
 66  6  1  0  0  0  0
 66  7  1  0  0  0  0
 67  8  1  0  0  0  0
 67  9  1  0  0  0  0
 67 10  1  0  0  0  0
 68 64  1  0  0  0  0
 68 69  2  0  0  0  0
 70 11  1  0  0  0  0
 70 68  1  0  0  0  0
 71 12  1  1  0  0  0
 71 70  1  0  0  0  0
 71 74  1  0  0  0  0
 72 71  1  0  0  0  0
 72 73  2  0  0  0  0
 74 13  1  0  0  0  0
 74 76  1  0  0  0  0
 74 75  1  0  0  0  0
 75 14  1  0  0  0  0
 75 15  1  0  0  0  0
 75 16  1  0  0  0  0
 76 17  1  0  0  0  0
 76 18  1  0  0  0  0
 76 19  1  0  0  0  0
 77 20  1  0  0  0  0
 77 72  1  0  0  0  0
 78 21  1  6  0  0  0
 78 77  1  0  0  0  0
 78 81  1  0  0  0  0
 79 78  1  0  0  0  0
 79 80  2  0  0  0  0
 81 22  1  0  0  0  0
 81 83  1  0  0  0  0
 81 82  1  0  0  0  0
 82 23  1  0  0  0  0
 82 24  1  0  0  0  0
 82 25  1  0  0  0  0
 83 26  1  0  0  0  0
 83 27  1  0  0  0  0
 83 28  1  0  0  0  0
 84 29  1  0  0  0  0
 84 79  1  0  0  0  0
 85 30  1  1  0  0  0
 85 84  1  0  0  0  0
 85 86  1  0  0  0  0
 86 31  1  0  0  0  0
 86 32  1  0  0  0  0
 86 87  1  0  0  0  0
 87 33  1  0  0  0  0
 87 88  1  0  0  0  0
 87 89  1  0  0  0  0
 88 34  1  0  0  0  0
 88 35  1  0  0  0  0
 88 36  1  0  0  0  0
 89 37  1  0  0  0  0
 89 38  1  0  0  0  0
 89 39  1  0  0  0  0
 90 40  1  1  0  0  0
 90 85  1  0  0  0  0
 90 91  1  0  0  0  0
 91 41  1  0  0  0  0
 92 42  1  0  0  0  0
 92 43  1  0  0  0  0
 92 90  1  0  0  0  0
 93 92  1  0  0  0  0
 93 94  2  0  0  0  0
 95 44  1  0  0  0  0
 95 93  1  0  0  0  0
 96 45  1  1  0  0  0
 96 95  1  0  0  0  0
 96 99  1  0  0  0  0
 97 96  1  0  0  0  0
 97 98  2  0  0  0  0
 99 46  1  0  0  0  0
 99 47  1  0  0  0  0
 99 48  1  0  0  0  0
100 97  1  0  0  0  0
100 49  1  0  0  0  0
101 50  1  6  0  0  0
101100  1  0  0  0  0
101102  1  0  0  0  0
102 51  1  0  0  0  0
102 52  1  0  0  0  0
102103  1  0  0  0  0
103 53  1  0  0  0  0
103104  1  0  0  0  0
103105  1  0  0  0  0
104 54  1  0  0  0  0
104 55  1  0  0  0  0
104 56  1  0  0  0  0
105 57  1  0  0  0  0
105 58  1  0  0  0  0
105 59  1  0  0  0  0
106 60  1  1  0  0  0
106101  1  0  0  0  0
106107  1  0  0  0  0
107 61  1  0  0  0  0
108 62  1  0  0  0  0
108 63  1  0  0  0  0
108106  1  0  0  0  0
108109  1  0  0  0  0
109  1  1  0  0  0  0
109110  2  0  0  0  0
M  CHG  1   1  -1
M  END
