6gpb_ligand
 OpenBabel08222323353D

 30 30  0  0  1  0  0  0  0  0999 V2000
   33.4830   23.0080   27.8320 C   0  0  1  0  0  0  0  0  0  0  0  0
   33.6870   23.1710   26.3310 C   0  0  1  0  0  0  0  0  0  0  0  0
   32.4770   22.6150   25.5910 C   0  0  2  0  0  0  0  0  0  0  0  0
   32.3010   21.1400   25.9210 C   0  0  1  0  0  0  0  0  0  0  0  0
   32.1120   20.9690   27.4240 C   0  0  1  0  0  0  0  0  0  0  0  0
   32.0400   19.4930   27.7900 C   0  0  0  0  0  0  0  0  0  0  0  0
   34.7000   23.4750   28.6160 C   0  0  0  0  0  0  0  0  0  0  0  0
   32.3220   23.8330   28.1980 O   0  0  0  0  0  0  0  0  0  0  0  0
   33.8550   24.5900   26.0030 O   0  0  0  0  0  0  0  0  0  0  0  0
   32.6690   22.7800   24.1440 O   0  0  0  0  0  0  0  0  0  0  0  0
   31.1290   20.6140   25.2110 O   0  0  0  0  0  0  0  0  0  0  0  0
   33.2430   21.5870   28.1340 O   0  0  0  0  0  0  0  0  0  0  0  0
   33.2810   18.8050   27.4050 O   0  0  0  0  0  0  0  0  0  0  0  0
   31.5120   25.0300   27.5030 P   0  0  0  0  0  0  0  0  0  0  0  0
   30.3860   24.4830   26.5240 O   0  0  0  0  0  1  0  0  0  0  0  0
   30.8240   25.8660   28.6770 O   0  0  0  0  0  1  0  0  0  0  0  0
   32.5150   25.9480   26.6810 O   0  0  0  0  0  0  0  0  0  0  0  0
   34.5873   22.6185   26.0243 H   0  0  0  0  0  0  0  0  0  0  0  0
   31.5770   23.1652   25.9029 H   0  0  0  0  0  0  0  0  0  0  0  0
   33.1970   20.5869   25.6027 H   0  0  0  0  0  0  0  0  0  0  0  0
   31.1769   21.4623   27.7275 H   0  0  0  0  0  0  0  0  0  0  0  0
   31.1918   19.0307   27.2638 H   0  0  0  0  0  0  0  0  0  0  0  0
   31.8946   19.3962   28.8760 H   0  0  0  0  0  0  0  0  0  0  0  0
   34.5158   23.3423   29.6923 H   0  0  0  0  0  0  0  0  0  0  0  0
   34.8867   24.5382   28.4043 H   0  0  0  0  0  0  0  0  0  0  0  0
   35.5775   22.8822   28.3184 H   0  0  0  0  0  0  0  0  0  0  0  0
   33.0771   25.0686   26.2645 H   0  0  0  0  0  0  0  0  0  0  0  0
   32.7783   23.7021   23.9433 H   0  0  0  0  0  0  0  0  0  0  0  0
   30.3536   21.0884   25.4871 H   0  0  0  0  0  0  0  0  0  0  0  0
   34.0153   19.2006   27.8599 H   0  0  0  0  0  0  0  0  0  0  0  0
  1  2  1  0  0  0  0
  1  7  1  0  0  0  0
  1  8  1  1  0  0  0
  1 12  1  0  0  0  0
  2  3  1  0  0  0  0
  2  9  1  0  0  0  0
  2 18  1  6  0  0  0
  3  4  1  0  0  0  0
  3 10  1  0  0  0  0
  3 19  1  1  0  0  0
  4  5  1  0  0  0  0
  4 11  1  0  0  0  0
  4 20  1  6  0  0  0
  5  6  1  0  0  0  0
  5 12  1  0  0  0  0
  5 21  1  1  0  0  0
  6 13  1  0  0  0  0
  6 22  1  0  0  0  0
  6 23  1  0  0  0  0
  7 24  1  0  0  0  0
  7 25  1  0  0  0  0
  7 26  1  0  0  0  0
  8 14  1  0  0  0  0
  9 27  1  0  0  0  0
 10 28  1  0  0  0  0
 11 29  1  0  0  0  0
 13 30  1  0  0  0  0
 14 15  1  0  0  0  0
 14 16  1  0  0  0  0
 14 17  2  0  0  0  0
M  END
