6lpr_ligand
 OpenBabel08222323353D

 58 58  0  0  1  0  0  0  0  0999 V2000
   13.5780   42.0430   18.4200 N   0  3  0  0  0  0  0  0  0  0  0  0
   14.1690   40.6990   18.3580 C   0  0  2  0  0  0  0  0  0  0  0  0
   13.2970   39.4770   18.6320 C   0  0  0  0  0  0  0  0  0  0  0  0
   12.5400   39.4140   19.6290 O   0  0  0  0  0  0  0  0  0  0  0  0
   15.3240   40.4650   19.3150 C   0  0  0  0  0  0  0  0  0  0  0  0
   13.4670   38.5180   17.7330 N   0  0  0  0  0  0  0  0  0  0  0  0
   12.6800   37.2760   17.9110 C   0  0  2  0  0  0  0  0  0  0  0  0
   13.6420   36.1620   17.5290 C   0  0  0  0  0  0  0  0  0  0  0  0
   14.5400   36.4300   16.7330 O   0  0  0  0  0  0  0  0  0  0  0  0
   11.4900   37.3110   16.9680 C   0  0  0  0  0  0  0  0  0  0  0  0
   13.3560   35.0200   18.1060 N   0  0  0  0  0  0  0  0  0  0  0  0
   14.1460   33.8120   17.7590 C   0  0  2  0  0  0  0  0  0  0  0  0
   13.8460   33.4360   16.2940 C   0  0  0  0  0  0  0  0  0  0  0  0
   12.6630   33.6360   15.8880 O   0  0  0  0  0  0  0  0  0  0  0  0
   13.5210   32.7550   18.6780 C   0  0  0  0  0  0  0  0  0  0  0  0
   12.8180   33.5360   19.7640 C   0  0  0  0  0  0  0  0  0  0  0  0
   12.2210   34.7250   19.0040 C   0  0  0  0  0  0  0  0  0  0  0  0
   14.8030   32.9010   15.5620 N   0  0  0  0  0  0  0  0  0  0  0  0
   14.5770   32.4300   14.1770 C   0  0  1  0  0  0  0  0  0  0  0  0
   15.4350   33.2780   13.2290 C   0  0  0  0  0  0  0  0  0  0  0  0
   15.0690   34.7400   13.1740 C   0  0  0  0  0  0  0  0  0  0  0  0
   16.1110   35.4320   12.2800 C   0  0  0  0  0  0  0  0  0  0  0  0
   15.9840   36.9560   12.2520 C   0  0  0  0  0  0  0  0  0  0  0  0
   14.8880   30.8970   14.0750 B   0  0  0  0  0  0  0  0  0  0  0  0
   14.9350   30.3530   12.7090 O   0  0  0  0  0  0  0  0  0  0  0  0
   14.0040   30.0840   15.0000 O   0  0  0  0  0  0  0  0  0  0  0  0
   14.2856   42.7310   18.2149 H   0  0  0  0  0  0  0  0  0  0  0  0
   13.2091   42.2056   19.3439 H   0  0  0  0  0  0  0  0  0  0  0  0
   12.8340   42.1144   17.7437 H   0  0  0  0  0  0  0  0  0  0  0  0
   14.5482   40.6061   17.3296 H   0  0  0  0  0  0  0  0  0  0  0  0
   15.6971   39.4372   19.1950 H   0  0  0  0  0  0  0  0  0  0  0  0
   14.9788   40.6113   20.3491 H   0  0  0  0  0  0  0  0  0  0  0  0
   16.1331   41.1768   19.0943 H   0  0  0  0  0  0  0  0  0  0  0  0
   14.1000   38.6284   16.9668 H   0  0  0  0  0  0  0  0  0  0  0  0
   12.3369   37.1623   18.9499 H   0  0  0  0  0  0  0  0  0  0  0  0
   10.8973   36.3926   17.0913 H   0  0  0  0  0  0  0  0  0  0  0  0
   11.8468   37.3805   15.9298 H   0  0  0  0  0  0  0  0  0  0  0  0
   10.8640   38.1852   17.1999 H   0  0  0  0  0  0  0  0  0  0  0  0
   15.2249   33.9421   17.9293 H   0  0  0  0  0  0  0  0  0  0  0  0
   14.3007   32.1106   19.1101 H   0  0  0  0  0  0  0  0  0  0  0  0
   12.8016   32.1369   18.1208 H   0  0  0  0  0  0  0  0  0  0  0  0
   13.5299   33.8747   20.5311 H   0  0  0  0  0  0  0  0  0  0  0  0
   12.0289   32.9329   20.2368 H   0  0  0  0  0  0  0  0  0  0  0  0
   11.3156   34.4448   18.4457 H   0  0  0  0  0  0  0  0  0  0  0  0
   11.9935   35.5689   19.6719 H   0  0  0  0  0  0  0  0  0  0  0  0
   15.7169   32.8098   15.9577 H   0  0  0  0  0  0  0  0  0  0  0  0
   13.5192   32.5816   13.9161 H   0  0  0  0  0  0  0  0  0  0  0  0
   15.3353   32.8630   12.2152 H   0  0  0  0  0  0  0  0  0  0  0  0
   16.4825   33.2006   13.5556 H   0  0  0  0  0  0  0  0  0  0  0  0
   15.0915   35.1732   14.1848 H   0  0  0  0  0  0  0  0  0  0  0  0
   14.0633   34.8616   12.7453 H   0  0  0  0  0  0  0  0  0  0  0  0
   15.9927   35.0550   11.2534 H   0  0  0  0  0  0  0  0  0  0  0  0
   17.1135   35.1741   12.6520 H   0  0  0  0  0  0  0  0  0  0  0  0
   16.7594   37.3765   11.5948 H   0  0  0  0  0  0  0  0  0  0  0  0
   16.1111   37.3533   13.2698 H   0  0  0  0  0  0  0  0  0  0  0  0
   14.9902   37.2342   11.8712 H   0  0  0  0  0  0  0  0  0  0  0  0
   15.2767   29.4669   12.7338 H   0  0  0  0  0  0  0  0  0  0  0  0
   14.0082   30.4757   15.8654 H   0  0  0  0  0  0  0  0  0  0  0  0
  1  2  1  0  0  0  0
  1 27  1  0  0  0  0
  1 28  1  0  0  0  0
  1 29  1  0  0  0  0
  2  3  1  0  0  0  0
  2  5  1  0  0  0  0
  2 30  1  6  0  0  0
  3  4  2  0  0  0  0
  3  6  1  0  0  0  0
  5 31  1  0  0  0  0
  5 32  1  0  0  0  0
  5 33  1  0  0  0  0
  6  7  1  0  0  0  0
  6 34  1  0  0  0  0
  7  8  1  0  0  0  0
  7 10  1  0  0  0  0
  7 35  1  1  0  0  0
  8  9  2  0  0  0  0
  8 11  1  0  0  0  0
 10 36  1  0  0  0  0
 10 37  1  0  0  0  0
 10 38  1  0  0  0  0
 11 12  1  0  0  0  0
 11 17  1  0  0  0  0
 12 13  1  0  0  0  0
 12 15  1  0  0  0  0
 12 39  1  1  0  0  0
 13 14  2  0  0  0  0
 13 18  1  0  0  0  0
 15 16  1  0  0  0  0
 15 40  1  0  0  0  0
 15 41  1  0  0  0  0
 16 17  1  0  0  0  0
 16 42  1  0  0  0  0
 16 43  1  0  0  0  0
 17 44  1  0  0  0  0
 17 45  1  0  0  0  0
 18 19  1  0  0  0  0
 18 46  1  0  0  0  0
 19 20  1  0  0  0  0
 19 24  1  0  0  0  0
 19 47  1  6  0  0  0
 20 21  1  0  0  0  0
 20 48  1  0  0  0  0
 20 49  1  0  0  0  0
 21 22  1  0  0  0  0
 21 50  1  0  0  0  0
 21 51  1  0  0  0  0
 22 23  1  0  0  0  0
 22 52  1  0  0  0  0
 22 53  1  0  0  0  0
 23 54  1  0  0  0  0
 23 55  1  0  0  0  0
 23 56  1  0  0  0  0
 24 25  1  0  0  0  0
 24 26  1  0  0  0  0
 25 57  1  0  0  0  0
 26 58  1  0  0  0  0
M  CHG  1   1   1
M  END
