6prc_ligand
 OpenBabel08222323353D

 32 32  0  0  1  0  0  0  0  0999 V2000
  132.1620   70.8490   -2.7220 N   0  0  0  0  0  0  0  0  0  0  0  0
  131.5570   69.7910   -2.2450 C   0  0  0  0  0  0  0  0  0  0  0  0
  131.2300   69.8650   -0.5320 Cl  0  0  0  0  0  0  0  0  0  0  0  0
  131.1660   68.6770   -2.8340 N   0  0  0  0  0  0  0  0  0  0  0  0
  131.4760   68.6810   -4.1640 C   0  0  0  0  0  0  0  0  0  0  0  0
  132.0950   69.6650   -4.8100 N   0  0  0  0  0  0  0  0  0  0  0  0
  132.4120   70.7240   -4.0550 C   0  0  0  0  0  0  0  0  0  0  0  0
  131.1100   67.5990   -4.8670 N   0  0  0  0  0  0  0  0  0  0  0  0
  130.4050   66.4260   -4.3700 C   0  0  2  0  0  0  0  0  0  0  0  0
  131.1720   65.6720   -3.3290 C   0  0  0  0  0  0  0  0  0  0  0  0
  131.7750   65.0570   -2.5430 N   0  0  0  0  0  0  0  0  0  0  0  0
  130.2860   65.3830   -5.4860 C   0  0  0  0  0  0  0  0  0  0  0  0
  128.9030   64.8120   -5.7040 C   0  0  0  0  0  0  0  0  0  0  0  0
  129.0590   66.8690   -3.7540 C   0  0  0  0  0  0  0  0  0  0  0  0
  133.0310   71.7780   -4.6260 N   0  0  0  0  0  0  0  0  0  0  0  0
  133.4340   72.9970   -3.9230 C   0  0  0  0  0  0  0  0  0  0  0  0
  133.5770   74.1430   -4.8680 C   0  0  0  0  0  0  0  0  0  0  0  0
  131.3543   67.5977   -5.8676 H   0  0  0  0  0  0  0  0  0  0  0  0
  130.9615   64.5495   -5.2432 H   0  0  0  0  0  0  0  0  0  0  0  0
  130.6089   65.8549   -6.4257 H   0  0  0  0  0  0  0  0  0  0  0  0
  128.9341   64.0785   -6.5231 H   0  0  0  0  0  0  0  0  0  0  0  0
  128.2081   65.6238   -5.9650 H   0  0  0  0  0  0  0  0  0  0  0  0
  128.5607   64.3183   -4.7826 H   0  0  0  0  0  0  0  0  0  0  0  0
  128.5208   65.9872   -3.3763 H   0  0  0  0  0  0  0  0  0  0  0  0
  128.4507   67.3684   -4.5225 H   0  0  0  0  0  0  0  0  0  0  0  0
  129.2472   67.5667   -2.9247 H   0  0  0  0  0  0  0  0  0  0  0  0
  133.2357   71.7205   -5.6338 H   0  0  0  0  0  0  0  0  0  0  0  0
  134.3983   72.8212   -3.4239 H   0  0  0  0  0  0  0  0  0  0  0  0
  132.6715   73.2458   -3.1703 H   0  0  0  0  0  0  0  0  0  0  0  0
  133.8798   75.0419   -4.3110 H   0  0  0  0  0  0  0  0  0  0  0  0
  132.6149   74.3283   -5.3679 H   0  0  0  0  0  0  0  0  0  0  0  0
  134.3417   73.9037   -5.6216 H   0  0  0  0  0  0  0  0  0  0  0  0
  1  2  2  0  0  0  0
  1  7  1  0  0  0  0
  2  3  1  0  0  0  0
  2  4  1  0  0  0  0
  4  5  2  0  0  0  0
  5  6  1  0  0  0  0
  5  8  1  0  0  0  0
  6  7  2  0  0  0  0
  7 15  1  0  0  0  0
  8  9  1  0  0  0  0
  8 18  1  0  0  0  0
  9 10  1  1  0  0  0
  9 12  1  0  0  0  0
  9 14  1  0  0  0  0
 10 11  3  0  0  0  0
 12 13  1  0  0  0  0
 12 19  1  0  0  0  0
 12 20  1  0  0  0  0
 13 21  1  0  0  0  0
 13 22  1  0  0  0  0
 13 23  1  0  0  0  0
 14 24  1  0  0  0  0
 14 25  1  0  0  0  0
 14 26  1  0  0  0  0
 15 16  1  0  0  0  0
 15 27  1  0  0  0  0
 16 17  1  0  0  0  0
 16 28  1  0  0  0  0
 16 29  1  0  0  0  0
 17 30  1  0  0  0  0
 17 31  1  0  0  0  0
 17 32  1  0  0  0  0
M  END
