6rsa_ligand
 OpenBabel08222323353D

 31 33  0  0  1  0  0  0  0  0999 V2000
   31.9690   13.6610    9.3520 N   0  0  0  0  0  0  0  0  0  0  0  0
   31.6560   13.9990   10.6120 C   0  0  0  0  0  0  0  0  0  0  0  0
   32.6700   13.7320   11.4680 N   0  0  0  0  0  0  0  0  0  0  0  0
   33.9450   13.2830   11.1760 C   0  0  0  0  0  0  0  0  0  0  0  0
   34.1750   13.0030    9.7950 C   0  0  0  0  0  0  0  0  0  0  0  0
   33.1740   13.1820    8.9370 C   0  0  0  0  0  0  0  0  0  0  0  0
   30.5780   14.3910   10.9970 O   0  0  0  0  0  0  0  0  0  0  0  0
   34.7720   13.2010   12.0750 O   0  0  0  0  0  0  0  0  0  0  0  0
   30.8990   13.8900    8.3080 C   0  0  1  0  0  0  0  0  0  0  0  0
   31.0410   15.3680    7.8540 C   0  0  2  0  0  0  0  0  0  0  0  0
   29.7220   15.8340    7.6390 O   0  0  0  0  0  0  0  0  0  0  0  0
   31.8620   15.3730    6.5900 C   0  0  1  0  0  0  0  0  0  0  0  0
   31.4720   13.9450    6.1120 C   0  0  2  0  0  0  0  0  0  0  0  0
   31.4880   16.4980    5.7190 O   0  0  0  0  0  0  0  0  0  0  0  0
   31.4320   13.0330    7.2580 O   0  0  0  0  0  0  0  0  0  0  0  0
   32.3320   13.2310    5.1080 C   0  0  0  0  0  0  0  0  0  0  0  0
   33.5140   12.8460    5.8130 O   0  0  0  0  0  0  0  0  0  0  0  0
   28.2280   17.0980    5.7410 O   0  0  0  0  0  0  0  0  0  0  0  0
   30.1590   18.2580    4.7970 O   0  0  0  0  0  0  0  0  0  0  0  0
   29.9270   18.6250    7.3880 O   0  0  0  0  0  0  0  0  0  0  0  0
   29.8540   17.2100    6.3660 V   0  0  0  0  0  0  0  0  0  0  0  0
   32.4745   13.8761   12.4221 H   0  0  0  0  0  0  0  0  0  0  0  0
   35.0960   12.6696    9.4700 H   0  0  0  0  0  0  0  0  0  0  0  0
   33.3133   12.9539    7.9402 H   0  0  0  0  0  0  0  0  0  0  0  0
   29.8834   13.7051    8.5896 H   0  0  0  0  0  0  0  0  0  0  0  0
   31.5293   15.9998    8.5662 H   0  0  0  0  0  0  0  0  0  0  0  0
   32.9186   15.5306    6.6511 H   0  0  0  0  0  0  0  0  0  0  0  0
   30.5446   14.1544    5.6211 H   0  0  0  0  0  0  0  0  0  0  0  0
   32.5779   13.8837    4.2966 H   0  0  0  0  0  0  0  0  0  0  0  0
   31.8292   12.3843    4.6895 H   0  0  0  0  0  0  0  0  0  0  0  0
   33.9439   13.6350    6.1784 H   0  0  0  0  0  0  0  0  0  0  0  0
  1  2  1  0  0  0  0
  1  6  1  0  0  0  0
  1  9  1  0  0  0  0
  2  3  1  0  0  0  0
  2  7  2  0  0  0  0
  3  4  1  0  0  0  0
  3 22  1  0  0  0  0
  4  5  1  0  0  0  0
  4  8  2  0  0  0  0
  5  6  2  0  0  0  0
  5 23  1  0  0  0  0
  6 24  1  0  0  0  0
  9 10  1  0  0  0  0
  9 15  1  0  0  0  0
  9 25  1  1  0  0  0
 10 11  1  0  0  0  0
 10 12  1  0  0  0  0
 10 26  1  1  0  0  0
 11 21  1  0  0  0  0
 12 13  1  0  0  0  0
 12 14  1  0  0  0  0
 12 27  1  1  0  0  0
 13 15  1  0  0  0  0
 13 16  1  0  0  0  0
 13 28  1  6  0  0  0
 16 17  1  0  0  0  0
 16 29  1  0  0  0  0
 16 30  1  0  0  0  0
 17 31  1  0  0  0  0
 21 14  1  0  0  0  0
 21 18  2  0  0  0  0
 21 19  2  0  0  0  0
 21 20  2  0  0  0  0
M  END
