7hvp_ligand
 OpenBabel08222323353D

130131  0  0  1  0  0  0  0  0999 V2000
    1.8900    6.1930    5.0320 C   0  0  0  0  0  0  0  0  0  0  0  0
    1.9330    5.1170    4.3950 O   0  0  0  0  0  0  0  0  0  0  0  0
    2.4200    7.5110    4.5260 C   0  0  0  0  0  0  0  0  0  0  0  0
    1.0850    6.0030    6.1060 N   0  0  0  0  0  0  0  0  0  0  0  0
    1.7030    5.7550    7.3760 C   0  0  2  0  0  0  0  0  0  0  0  0
    2.5360    4.5050    7.5630 C   0  0  0  0  0  0  0  0  0  0  0  0
    2.5860    3.5320    6.7940 O   0  0  0  0  0  0  0  0  0  0  0  0
    0.7460    5.8670    8.5450 C   0  0  0  0  0  0  0  0  0  0  0  0
    0.1500    7.1780    8.4830 O   0  0  0  0  0  0  0  0  0  0  0  0
    3.1770    4.6710    8.7260 N   0  0  0  0  0  0  0  0  0  0  0  0
    4.0830    3.6220    9.2140 C   0  0  2  0  0  0  0  0  0  0  0  0
    3.5330    3.2510   10.5710 C   0  0  0  0  0  0  0  0  0  0  0  0
    3.1160    4.1120   11.3100 O   0  0  0  0  0  0  0  0  0  0  0  0
    5.4450    4.2020    8.9740 C   0  0  0  0  0  0  0  0  0  0  0  0
    6.2150    4.0280    7.6840 C   0  0  0  0  0  0  0  0  0  0  0  0
    5.4030    3.6960    6.4770 C   0  0  0  0  0  0  0  0  0  0  0  0
    6.9000    5.3890    7.4620 C   0  0  0  0  0  0  0  0  0  0  0  0
    3.5060    1.9680   10.8460 N   0  0  0  0  0  0  0  0  0  0  0  0
    2.9800    1.3330   12.0640 C   0  0  2  0  0  0  0  0  0  0  0  0
    3.8620    0.1310   12.4520 C   0  0  0  0  0  0  0  0  0  0  0  0
    3.8420   -0.9570   11.8670 O   0  0  0  0  0  0  0  0  0  0  0  0
    1.5090    0.9180   11.9080 C   0  0  0  0  0  0  0  0  0  0  0  0
    0.6970    2.0820   11.3510 C   0  0  0  0  0  0  0  0  0  0  0  0
    0.4850    2.0330   10.1290 O   0  0  0  0  0  0  0  0  0  0  0  0
    0.3730    3.0610   12.1970 N   0  0  0  0  0  0  0  0  0  0  0  0
    4.6270    0.4750   13.4820 N   0  0  0  0  0  0  0  0  0  0  0  0
    5.6090   -0.3730   14.1650 C   0  0  2  0  0  0  0  0  0  0  0  0
    5.0400   -1.0900   15.3970 C   0  0  1  0  0  0  0  0  0  0  0  0
    4.8670   -0.0360   16.3930 O   0  0  0  0  0  0  0  0  0  0  0  0
    6.8300    0.5450   14.3650 C   0  0  0  0  0  0  0  0  0  0  0  0
    7.4270    0.7800   12.9640 C   0  0  0  0  0  0  0  0  0  0  0  0
    7.8070   -0.3190   12.1930 C   0  0  0  0  0  0  0  0  0  0  0  0
    7.6290    2.0510   12.4430 C   0  0  0  0  0  0  0  0  0  0  0  0
    8.3210   -0.1260   10.9420 C   0  0  0  0  0  0  0  0  0  0  0  0
    8.1910    2.2740   11.2040 C   0  0  0  0  0  0  0  0  0  0  0  0
    8.5030    1.1740   10.4430 C   0  0  0  0  0  0  0  0  0  0  0  0
    3.6670   -1.7210   15.0170 C   0  0  0  0  0  0  0  0  0  0  0  0
    3.0130   -2.9590   15.6070 N   0  3  2  0  0  0  0  0  0  0  0  0
    4.0320   -3.6730   16.4450 C   0  0  2  0  0  0  0  0  0  0  0  0
    5.3640   -4.1290   15.8560 C   0  0  0  0  0  0  0  0  0  0  0  0
    5.7260   -4.0200   14.6580 O   0  0  0  0  0  0  0  0  0  0  0  0
    3.0600   -4.8450   16.8340 C   0  0  0  0  0  0  0  0  0  0  0  0
    2.4080   -5.2020   15.5400 C   0  0  0  0  0  0  0  0  0  0  0  0
    2.3930   -3.9340   14.6930 C   0  0  0  0  0  0  0  0  0  0  0  0
    6.1730   -4.6260   16.7760 N   0  0  0  0  0  0  0  0  0  0  0  0
    7.4640   -5.2520   16.6960 C   0  0  2  0  0  0  0  0  0  0  0  0
    7.1170   -6.5180   17.5770 C   0  0  0  0  0  0  0  0  0  0  0  0
    6.6910   -6.3260   18.7100 O   0  0  0  0  0  0  0  0  0  0  0  0
    8.8620   -4.7610   17.1550 C   0  0  2  0  0  0  0  0  0  0  0  0
    9.3560   -3.4290   16.5960 C   0  0  0  0  0  0  0  0  0  0  0  0
    9.8760   -5.9420   16.8790 C   0  0  0  0  0  0  0  0  0  0  0  0
    9.2870   -3.1030   15.1110 C   0  0  0  0  0  0  0  0  0  0  0  0
    7.2880   -7.6670   16.9590 N   0  0  0  0  0  0  0  0  0  0  0  0
    6.9170   -8.8700   17.7320 C   0  0  2  0  0  0  0  0  0  0  0  0
    7.8460  -10.0170   17.4840 C   0  0  0  0  0  0  0  0  0  0  0  0
    8.4950  -10.3760   16.3200 O   0  0  0  0  0  0  0  0  0  0  0  0
    5.3920   -9.0430   17.4230 C   0  0  0  0  0  0  0  0  0  0  0  0
    5.1440  -10.3010   16.6130 C   0  0  0  0  0  0  0  0  0  0  0  0
    4.6400   -8.8680   18.7170 C   0  0  0  0  0  0  0  0  0  0  0  0
    9.4200  -10.2930   19.4970 C   0  0  0  0  0  0  0  0  0  0  0  0
    8.3170  -10.8830   18.5900 O   0  0  0  0  0  0  0  0  0  0  0  0
    2.2535    8.2890    5.2856 H   0  0  0  0  0  0  0  0  0  0  0  0
    1.8955    7.7855    3.5989 H   0  0  0  0  0  0  0  0  0  0  0  0
    3.4975    7.4199    4.3246 H   0  0  0  0  0  0  0  0  0  0  0  0
    0.0896    6.0348    6.0153 H   0  0  0  0  0  0  0  0  0  0  0  0
    2.4151    6.5859    7.4878 H   0  0  0  0  0  0  0  0  0  0  0  0
    1.2920    5.7456    9.4922 H   0  0  0  0  0  0  0  0  0  0  0  0
   -0.0335    5.0946    8.4694 H   0  0  0  0  0  0  0  0  0  0  0  0
   -0.4585    7.2825    9.2051 H   0  0  0  0  0  0  0  0  0  0  0  0
    3.0401    5.5050    9.2605 H   0  0  0  0  0  0  0  0  0  0  0  0
    4.0101    2.7189    8.5902 H   0  0  0  0  0  0  0  0  0  0  0  0
    6.0894    3.7915    9.7654 H   0  0  0  0  0  0  0  0  0  0  0  0
    5.3376    5.2876    9.1149 H   0  0  0  0  0  0  0  0  0  0  0  0
    6.9665    3.2363    7.8197 H   0  0  0  0  0  0  0  0  0  0  0  0
    6.0664    3.5942    5.6055 H   0  0  0  0  0  0  0  0  0  0  0  0
    4.6754    4.5000    6.2920 H   0  0  0  0  0  0  0  0  0  0  0  0
    4.8687    2.7490    6.6436 H   0  0  0  0  0  0  0  0  0  0  0  0
    7.5023    5.6449    8.3462 H   0  0  0  0  0  0  0  0  0  0  0  0
    6.1348    6.1631    7.3031 H   0  0  0  0  0  0  0  0  0  0  0  0
    7.5524    5.3314    6.5782 H   0  0  0  0  0  0  0  0  0  0  0  0
    3.8842    1.3555   10.1519 H   0  0  0  0  0  0  0  0  0  0  0  0
    3.0328    2.0703   12.8786 H   0  0  0  0  0  0  0  0  0  0  0  0
    1.1056    0.6289   12.8897 H   0  0  0  0  0  0  0  0  0  0  0  0
    1.4423    0.0638   11.2181 H   0  0  0  0  0  0  0  0  0  0  0  0
   -0.1589    3.8443   11.8752 H   0  0  0  0  0  0  0  0  0  0  0  0
    0.6620    3.0117   13.1531 H   0  0  0  0  0  0  0  0  0  0  0  0
    4.5225    1.4078   13.8269 H   0  0  0  0  0  0  0  0  0  0  0  0
    5.9123   -1.1725   13.4731 H   0  0  0  0  0  0  0  0  0  0  0  0
    5.7271   -1.8676   15.7619 H   0  0  0  0  0  0  0  0  0  0  0  0
    4.2669    0.6197   16.0576 H   0  0  0  0  0  0  0  0  0  0  0  0
    7.5698    0.0585   15.0177 H   0  0  0  0  0  0  0  0  0  0  0  0
    6.5190    1.5008   14.8119 H   0  0  0  0  0  0  0  0  0  0  0  0
    7.6947   -1.3232   12.5855 H   0  0  0  0  0  0  0  0  0  0  0  0
    7.3312    2.9071   13.0376 H   0  0  0  0  0  0  0  0  0  0  0  0
    8.5897   -0.9805   10.3316 H   0  0  0  0  0  0  0  0  0  0  0  0
    8.3794    3.2790   10.8442 H   0  0  0  0  0  0  0  0  0  0  0  0
    8.8957    1.3114    9.4420 H   0  0  0  0  0  0  0  0  0  0  0  0
    3.7462   -1.9337   13.9407 H   0  0  0  0  0  0  0  0  0  0  0  0
    2.9356   -0.9155   15.1787 H   0  0  0  0  0  0  0  0  0  0  0  0
    2.2769   -2.6303   16.2121 H   0  0  0  0  0  0  0  0  0  0  0  0
    4.2843   -3.0589   17.3221 H   0  0  0  0  0  0  0  0  0  0  0  0
    2.3147   -4.5096   17.5702 H   0  0  0  0  0  0  0  0  0  0  0  0
    3.6189   -5.7003   17.2416 H   0  0  0  0  0  0  0  0  0  0  0  0
    2.9815   -5.9910   15.0315 H   0  0  0  0  0  0  0  0  0  0  0  0
    1.3803   -5.5519   15.7171 H   0  0  0  0  0  0  0  0  0  0  0  0
    2.9867   -4.0575   13.7752 H   0  0  0  0  0  0  0  0  0  0  0  0
    1.3664   -3.6400   14.4289 H   0  0  0  0  0  0  0  0  0  0  0  0
    5.8178   -4.5520   17.7079 H   0  0  0  0  0  0  0  0  0  0  0  0
    7.6039   -5.5260   15.6399 H   0  0  0  0  0  0  0  0  0  0  0  0
    8.8036   -4.6202   18.2444 H   0  0  0  0  0  0  0  0  0  0  0  0
   10.4158   -3.3499   16.8798 H   0  0  0  0  0  0  0  0  0  0  0  0
    8.7792   -2.6462   17.1103 H   0  0  0  0  0  0  0  0  0  0  0  0
    9.4748   -6.8757   17.3000 H   0  0  0  0  0  0  0  0  0  0  0  0
   10.8429   -5.7129   17.3507 H   0  0  0  0  0  0  0  0  0  0  0  0
   10.0158   -6.0593   15.7943 H   0  0  0  0  0  0  0  0  0  0  0  0
    9.6953   -2.0965   14.9372 H   0  0  0  0  0  0  0  0  0  0  0  0
    8.2396   -3.1365   14.7765 H   0  0  0  0  0  0  0  0  0  0  0  0
    9.8762   -3.8402   14.5460 H   0  0  0  0  0  0  0  0  0  0  0  0
    7.6458   -7.7223   16.0268 H   0  0  0  0  0  0  0  0  0  0  0  0
    7.0091   -8.6419   18.8041 H   0  0  0  0  0  0  0  0  0  0  0  0
    5.0856   -8.2088   16.7748 H   0  0  0  0  0  0  0  0  0  0  0  0
    4.0675  -10.3997   16.4094 H   0  0  0  0  0  0  0  0  0  0  0  0
    5.4916  -11.1769   17.1804 H   0  0  0  0  0  0  0  0  0  0  0  0
    5.6929  -10.2388   15.6618 H   0  0  0  0  0  0  0  0  0  0  0  0
    4.9277   -7.9136   19.1820 H   0  0  0  0  0  0  0  0  0  0  0  0
    4.8847   -9.6962   19.3982 H   0  0  0  0  0  0  0  0  0  0  0  0
    3.5587   -8.8663   18.5154 H   0  0  0  0  0  0  0  0  0  0  0  0
    9.6845  -11.0239   20.2753 H   0  0  0  0  0  0  0  0  0  0  0  0
    9.0514   -9.3709   19.9701 H   0  0  0  0  0  0  0  0  0  0  0  0
   10.3093  -10.0643   18.8914 H   0  0  0  0  0  0  0  0  0  0  0  0
  1  2  2  0  0  0  0
  1  3  1  0  0  0  0
  3 62  1  0  0  0  0
  3 63  1  0  0  0  0
  3 64  1  0  0  0  0
  4  1  1  0  0  0  0
  4 65  1  0  0  0  0
  5  4  1  0  0  0  0
  5  8  1  0  0  0  0
  5 66  1  1  0  0  0
  6  5  1  0  0  0  0
  6  7  2  0  0  0  0
  8  9  1  0  0  0  0
  8 67  1  0  0  0  0
  8 68  1  0  0  0  0
  9 69  1  0  0  0  0
 10  6  1  0  0  0  0
 10 70  1  0  0  0  0
 11 10  1  0  0  0  0
 11 14  1  0  0  0  0
 11 71  1  6  0  0  0
 12 11  1  0  0  0  0
 12 13  2  0  0  0  0
 14 15  1  0  0  0  0
 14 72  1  0  0  0  0
 14 73  1  0  0  0  0
 15 16  1  0  0  0  0
 15 17  1  0  0  0  0
 15 74  1  0  0  0  0
 16 75  1  0  0  0  0
 16 76  1  0  0  0  0
 16 77  1  0  0  0  0
 17 78  1  0  0  0  0
 17 79  1  0  0  0  0
 17 80  1  0  0  0  0
 18 12  1  0  0  0  0
 18 81  1  0  0  0  0
 19 18  1  0  0  0  0
 19 22  1  0  0  0  0
 19 82  1  1  0  0  0
 20 19  1  0  0  0  0
 20 21  2  0  0  0  0
 22 23  1  0  0  0  0
 22 83  1  0  0  0  0
 22 84  1  0  0  0  0
 23 25  1  0  0  0  0
 23 24  2  0  0  0  0
 25 85  1  0  0  0  0
 25 86  1  0  0  0  0
 26 20  1  0  0  0  0
 26 87  1  0  0  0  0
 27 26  1  0  0  0  0
 27 30  1  0  0  0  0
 27 88  1  6  0  0  0
 28 27  1  0  0  0  0
 28 29  1  0  0  0  0
 28 89  1  1  0  0  0
 29 90  1  0  0  0  0
 30 31  1  0  0  0  0
 30 91  1  0  0  0  0
 30 92  1  0  0  0  0
 31 32  2  0  0  0  0
 31 33  1  0  0  0  0
 32 34  1  0  0  0  0
 32 93  1  0  0  0  0
 33 35  2  0  0  0  0
 33 94  1  0  0  0  0
 34 36  2  0  0  0  0
 34 95  1  0  0  0  0
 35 36  1  0  0  0  0
 35 96  1  0  0  0  0
 36 97  1  0  0  0  0
 37 28  1  0  0  0  0
 37 98  1  0  0  0  0
 37 99  1  0  0  0  0
 38 44  1  0  0  0  0
 38 37  1  0  0  0  0
 38100  1  1  0  0  0
 39 42  1  0  0  0  0
 39 38  1  0  0  0  0
 39101  1  1  0  0  0
 40 39  1  0  0  0  0
 40 41  2  0  0  0  0
 42 43  1  0  0  0  0
 42102  1  0  0  0  0
 42103  1  0  0  0  0
 43104  1  0  0  0  0
 43105  1  0  0  0  0
 44 43  1  0  0  0  0
 44106  1  0  0  0  0
 44107  1  0  0  0  0
 45 40  1  0  0  0  0
 45108  1  0  0  0  0
 46 45  1  0  0  0  0
 46 49  1  0  0  0  0
 46109  1  6  0  0  0
 47 46  1  0  0  0  0
 47 48  2  0  0  0  0
 49 51  1  0  0  0  0
 49 50  1  0  0  0  0
 49110  1  1  0  0  0
 50 52  1  0  0  0  0
 50111  1  0  0  0  0
 50112  1  0  0  0  0
 51113  1  0  0  0  0
 51114  1  0  0  0  0
 51115  1  0  0  0  0
 52116  1  0  0  0  0
 52117  1  0  0  0  0
 52118  1  0  0  0  0
 53 47  1  0  0  0  0
 53119  1  0  0  0  0
 54 53  1  0  0  0  0
 54 57  1  0  0  0  0
 54120  1  1  0  0  0
 55 54  1  0  0  0  0
 55 56  2  0  0  0  0
 57 59  1  0  0  0  0
 57 58  1  0  0  0  0
 57121  1  0  0  0  0
 58122  1  0  0  0  0
 58123  1  0  0  0  0
 58124  1  0  0  0  0
 59125  1  0  0  0  0
 59126  1  0  0  0  0
 59127  1  0  0  0  0
 60128  1  0  0  0  0
 60129  1  0  0  0  0
 60130  1  0  0  0  0
 61 60  1  0  0  0  0
 61 55  1  0  0  0  0
M  CHG  1  38   1
M  END
