8gpb_ligand
 OpenBabel08222323353D

 35 37  0  0  1  0  0  0  0  0999 V2000
   31.1120    1.9730   51.2100 P   0  0  0  0  0  0  0  0  0  0  0  0
   32.3750    1.2580   51.2420 O   0  0  0  0  0  1  0  0  0  0  0  0
   30.6820    2.4470   49.8470 O   0  0  0  0  0  1  0  0  0  0  0  0
   31.1330    3.1420   52.1560 O   0  0  0  0  0  0  0  0  0  0  0  0
   30.0490    0.9560   51.8310 O   0  0  0  0  0  0  0  0  0  0  0  0
   29.5220   -0.1750   51.0700 C   0  0  0  0  0  0  0  0  0  0  0  0
   28.2040   -0.8740   51.6510 C   0  0  1  0  0  0  0  0  0  0  0  0
   28.5290   -2.3020   51.6600 O   0  0  0  0  0  0  0  0  0  0  0  0
   27.7830   -0.6400   53.0620 C   0  0  1  0  0  0  0  0  0  0  0  0
   26.8320    0.4460   53.1210 O   0  0  0  0  0  0  0  0  0  0  0  0
   27.0570   -1.9970   53.3820 C   0  0  1  0  0  0  0  0  0  0  0  0
   25.8840   -2.2770   52.6140 O   0  0  0  0  0  0  0  0  0  0  0  0
   28.0570   -2.9710   52.8390 C   0  0  2  0  0  0  0  0  0  0  0  0
   29.2200   -3.1970   53.7270 N   0  0  0  0  0  0  0  0  0  0  0  0
   30.3640   -2.4050   53.8760 C   0  0  0  0  0  0  0  0  0  0  0  0
   31.2240   -2.7410   54.7850 N   0  0  0  0  0  0  0  0  0  0  0  0
   30.5860   -3.8780   55.2940 C   0  0  0  0  0  0  0  0  0  0  0  0
   30.9850   -4.7110   56.3420 C   0  0  0  0  0  0  0  0  0  0  0  0
   32.1450   -4.3900   56.9790 N   0  0  0  0  0  0  0  0  0  0  0  0
   30.1560   -5.7330   56.6900 N   0  0  0  0  0  0  0  0  0  0  0  0
   29.0360   -5.9130   55.9610 C   0  0  0  0  0  0  0  0  0  0  0  0
   28.5210   -5.1670   54.9700 N   0  0  0  0  0  0  0  0  0  0  0  0
   29.3570   -4.1400   54.6990 C   0  0  0  0  0  0  0  0  0  0  0  0
   30.3109   -0.9398   51.0183 H   0  0  0  0  0  0  0  0  0  0  0  0
   29.2912    0.1829   50.0558 H   0  0  0  0  0  0  0  0  0  0  0  0
   27.3611   -0.6406   50.9839 H   0  0  0  0  0  0  0  0  0  0  0  0
   28.6356   -0.4487   53.7302 H   0  0  0  0  0  0  0  0  0  0  0  0
   26.0692    0.2261   52.5993 H   0  0  0  0  0  0  0  0  0  0  0  0
   26.8585   -2.1045   54.4586 H   0  0  0  0  0  0  0  0  0  0  0  0
   26.1108   -2.3097   51.6921 H   0  0  0  0  0  0  0  0  0  0  0  0
   27.5770   -3.9325   52.6043 H   0  0  0  0  0  0  0  0  0  0  0  0
   30.5267   -1.5316   53.2462 H   0  0  0  0  0  0  0  0  0  0  0  0
   32.4828   -4.9725   57.7584 H   0  0  0  0  0  0  0  0  0  0  0  0
   32.6846   -3.5647   56.6814 H   0  0  0  0  0  0  0  0  0  0  0  0
   28.4622   -6.7971   56.2141 H   0  0  0  0  0  0  0  0  0  0  0  0
  1  2  1  0  0  0  0
  1  3  1  0  0  0  0
  1  4  2  0  0  0  0
  1  5  1  0  0  0  0
  5  6  1  0  0  0  0
  6  7  1  0  0  0  0
  6 24  1  0  0  0  0
  6 25  1  0  0  0  0
  7  8  1  0  0  0  0
  7  9  1  0  0  0  0
  7 26  1  6  0  0  0
  8 13  1  0  0  0  0
  9 10  1  0  0  0  0
  9 11  1  0  0  0  0
  9 27  1  1  0  0  0
 10 28  1  0  0  0  0
 11 12  1  0  0  0  0
 11 13  1  0  0  0  0
 11 29  1  1  0  0  0
 12 30  1  0  0  0  0
 13 14  1  0  0  0  0
 13 31  1  6  0  0  0
 14 15  1  0  0  0  0
 14 23  1  0  0  0  0
 15 16  2  0  0  0  0
 15 32  1  0  0  0  0
 16 17  1  0  0  0  0
 17 18  2  0  0  0  0
 17 23  1  0  0  0  0
 18 19  1  0  0  0  0
 18 20  1  0  0  0  0
 19 33  1  0  0  0  0
 19 34  1  0  0  0  0
 20 21  2  0  0  0  0
 21 22  1  0  0  0  0
 21 35  1  0  0  0  0
 22 23  2  0  0  0  0
M  END
