8lpr_ligand
 OpenBabel08222323353D

 59 60  0  0  1  0  0  0  0  0999 V2000
   13.6250   41.9040   18.8670 N   0  3  0  0  0  0  0  0  0  0  0  0
   14.1880   40.5770   18.5250 C   0  0  2  0  0  0  0  0  0  0  0  0
   13.2840   39.3680   18.7490 C   0  0  0  0  0  0  0  0  0  0  0  0
   12.6410   39.3080   19.8140 O   0  0  0  0  0  0  0  0  0  0  0  0
   15.3180   40.2620   19.5300 C   0  0  0  0  0  0  0  0  0  0  0  0
   13.3250   38.4620   17.7960 N   0  0  0  0  0  0  0  0  0  0  0  0
   12.5500   37.2080   17.9690 C   0  0  2  0  0  0  0  0  0  0  0  0
   13.5320   36.0850   17.6020 C   0  0  0  0  0  0  0  0  0  0  0  0
   14.3880   36.3650   16.7350 O   0  0  0  0  0  0  0  0  0  0  0  0
   11.4140   37.1210   16.9420 C   0  0  0  0  0  0  0  0  0  0  0  0
   13.2570   34.9240   18.1510 N   0  0  0  0  0  0  0  0  0  0  0  0
   14.0380   33.7180   17.7940 C   0  0  2  0  0  0  0  0  0  0  0  0
   13.7470   33.3160   16.3340 C   0  0  0  0  0  0  0  0  0  0  0  0
   12.6110   33.4760   15.8150 O   0  0  0  0  0  0  0  0  0  0  0  0
   13.5420   32.6480   18.7990 C   0  0  0  0  0  0  0  0  0  0  0  0
   12.7040   33.3740   19.8020 C   0  0  0  0  0  0  0  0  0  0  0  0
   12.1330   34.6260   19.0900 C   0  0  0  0  0  0  0  0  0  0  0  0
   14.7590   32.7570   15.6540 N   0  0  0  0  0  0  0  0  0  0  0  0
   14.6920   32.2700   14.2990 C   0  0  1  0  0  0  0  0  0  0  0  0
   15.6420   32.9590   13.3050 C   0  0  0  0  0  0  0  0  0  0  0  0
   15.4950   34.4080   13.0090 C   0  0  0  0  0  0  0  0  0  0  0  0
   16.4250   35.0230   12.1730 C   0  0  0  0  0  0  0  0  0  0  0  0
   14.4850   35.1820   13.5960 C   0  0  0  0  0  0  0  0  0  0  0  0
   16.3360   36.3910   11.9020 C   0  0  0  0  0  0  0  0  0  0  0  0
   14.3580   36.5530   13.3060 C   0  0  0  0  0  0  0  0  0  0  0  0
   15.2970   37.1470   12.4420 C   0  0  0  0  0  0  0  0  0  0  0  0
   14.8350   30.7120   14.1610 B   0  0  0  0  0  0  0  0  0  0  0  0
   14.8530   30.1950   12.7560 O   0  0  0  0  0  0  0  0  0  0  0  0
   14.0410   29.9520   15.1450 O   0  0  0  0  0  0  0  0  0  0  0  0
   14.3102   42.6186   18.6776 H   0  0  0  0  0  0  0  0  0  0  0  0
   13.3807   41.9235   19.8447 H   0  0  0  0  0  0  0  0  0  0  0  0
   12.8011   42.0728   18.3114 H   0  0  0  0  0  0  0  0  0  0  0  0
   14.5483   40.5994   17.4859 H   0  0  0  0  0  0  0  0  0  0  0  0
   15.7530   39.2791   19.2963 H   0  0  0  0  0  0  0  0  0  0  0  0
   14.9078   40.2481   20.5505 H   0  0  0  0  0  0  0  0  0  0  0  0
   16.0979   41.0344   19.4588 H   0  0  0  0  0  0  0  0  0  0  0  0
   13.8682   38.6153   16.9705 H   0  0  0  0  0  0  0  0  0  0  0  0
   12.1665   37.1118   18.9955 H   0  0  0  0  0  0  0  0  0  0  0  0
   10.8560   36.1848   17.0909 H   0  0  0  0  0  0  0  0  0  0  0  0
   11.8358   37.1388   15.9262 H   0  0  0  0  0  0  0  0  0  0  0  0
   10.7355   37.9769   17.0723 H   0  0  0  0  0  0  0  0  0  0  0  0
   15.1167   33.8949   17.9167 H   0  0  0  0  0  0  0  0  0  0  0  0
   14.3970   32.1651   19.2947 H   0  0  0  0  0  0  0  0  0  0  0  0
   12.9412   31.8867   18.2798 H   0  0  0  0  0  0  0  0  0  0  0  0
   13.3200   33.6759   20.6619 H   0  0  0  0  0  0  0  0  0  0  0  0
   11.8833   32.7282   20.1475 H   0  0  0  0  0  0  0  0  0  0  0  0
   11.2004   34.4002   18.5522 H   0  0  0  0  0  0  0  0  0  0  0  0
   11.9591   35.4527   19.7945 H   0  0  0  0  0  0  0  0  0  0  0  0
   15.6354   32.6707   16.1278 H   0  0  0  0  0  0  0  0  0  0  0  0
   13.6740   32.5133   13.9607 H   0  0  0  0  0  0  0  0  0  0  0  0
   15.5365   32.4284   12.3472 H   0  0  0  0  0  0  0  0  0  0  0  0
   16.6618   32.8174   13.6923 H   0  0  0  0  0  0  0  0  0  0  0  0
   17.2221   34.4368   11.7303 H   0  0  0  0  0  0  0  0  0  0  0  0
   13.7897   34.7166   14.2852 H   0  0  0  0  0  0  0  0  0  0  0  0
   17.0775   36.8658   11.2697 H   0  0  0  0  0  0  0  0  0  0  0  0
   13.5548   37.1387   13.7384 H   0  0  0  0  0  0  0  0  0  0  0  0
   15.2116   38.1990   12.1950 H   0  0  0  0  0  0  0  0  0  0  0  0
   15.3928   30.7622   12.2179 H   0  0  0  0  0  0  0  0  0  0  0  0
   14.1052   30.3724   15.9945 H   0  0  0  0  0  0  0  0  0  0  0  0
  1  2  1  0  0  0  0
  1 30  1  0  0  0  0
  1 31  1  0  0  0  0
  1 32  1  0  0  0  0
  2  3  1  0  0  0  0
  2  5  1  0  0  0  0
  2 33  1  6  0  0  0
  3  4  2  0  0  0  0
  3  6  1  0  0  0  0
  5 34  1  0  0  0  0
  5 35  1  0  0  0  0
  5 36  1  0  0  0  0
  6  7  1  0  0  0  0
  6 37  1  0  0  0  0
  7  8  1  0  0  0  0
  7 10  1  0  0  0  0
  7 38  1  1  0  0  0
  8  9  2  0  0  0  0
  8 11  1  0  0  0  0
 10 39  1  0  0  0  0
 10 40  1  0  0  0  0
 10 41  1  0  0  0  0
 11 12  1  0  0  0  0
 11 17  1  0  0  0  0
 12 13  1  0  0  0  0
 12 15  1  0  0  0  0
 12 42  1  1  0  0  0
 13 14  2  0  0  0  0
 13 18  1  0  0  0  0
 15 16  1  0  0  0  0
 15 43  1  0  0  0  0
 15 44  1  0  0  0  0
 16 17  1  0  0  0  0
 16 45  1  0  0  0  0
 16 46  1  0  0  0  0
 17 47  1  0  0  0  0
 17 48  1  0  0  0  0
 18 19  1  0  0  0  0
 18 49  1  0  0  0  0
 19 20  1  0  0  0  0
 19 27  1  0  0  0  0
 19 50  1  6  0  0  0
 20 21  1  0  0  0  0
 20 51  1  0  0  0  0
 20 52  1  0  0  0  0
 21 22  2  0  0  0  0
 21 23  1  0  0  0  0
 22 24  1  0  0  0  0
 22 53  1  0  0  0  0
 23 25  2  0  0  0  0
 23 54  1  0  0  0  0
 24 26  2  0  0  0  0
 24 55  1  0  0  0  0
 25 26  1  0  0  0  0
 25 56  1  0  0  0  0
 26 57  1  0  0  0  0
 27 28  1  0  0  0  0
 27 29  1  0  0  0  0
 28 58  1  0  0  0  0
 29 59  1  0  0  0  0
M  CHG  1   1   1
M  END
