1amk_ligand
 OpenBabel08222323333D

 11 10  0  0  0  0  0  0  0  0999 V2000
    8.0940   -1.7350   18.4460 P   0  0  0  0  0  0  0  0  0  0  0  0
    8.9420   -0.5090   18.7230 O   0  0  0  0  0  1  0  0  0  0  0  0
    8.4690   -3.1080   18.9080 O   0  0  0  0  0  1  0  0  0  0  0  0
    6.5410   -1.3810   18.5750 O   0  0  0  0  0  0  0  0  0  0  0  0
    7.9310   -2.0970   16.8860 O   0  0  0  0  0  0  0  0  0  0  0  0
    9.1670   -2.4150   16.2890 C   0  0  0  0  0  0  0  0  0  0  0  0
    8.9070   -2.4510   14.7910 C   0  0  0  0  0  0  0  0  0  0  0  0
    9.8920   -2.1350   13.9990 O   0  5  0  0  0  0  0  0  0  0  0  0
    7.8380   -2.8150   14.3180 O   0  0  0  0  0  0  0  0  0  0  0  0
    9.5208   -3.3956   16.6399 H   0  0  0  0  0  0  0  0  0  0  0  0
    9.9171   -1.6471   16.5291 H   0  0  0  0  0  0  0  0  0  0  0  0
  1  2  1  0  0  0  0
  1  3  1  0  0  0  0
  1  4  2  0  0  0  0
  1  5  1  0  0  0  0
  5  6  1  0  0  0  0
  6  7  1  0  0  0  0
  6 10  1  0  0  0  0
  6 11  1  0  0  0  0
  7  8  1  0  0  0  0
  7  9  2  0  0  0  0
M  CHG  1   8  -1
M  END
