2qfu_ligand
 OpenBabel08222323333D

 16 15  0  0  0  0  0  0  0  0999 V2000
   60.2450    8.6740   26.9030 P   0  0  0  0  0  0  0  0  0  0  0  0
   60.3050   10.1080   27.2450 O   0  0  0  0  0  1  0  0  0  0  0  0
   59.1710    8.3000   25.9520 O   0  0  0  0  0  1  0  0  0  0  0  0
   61.6010    8.1780   26.4350 O   0  0  0  0  0  0  0  0  0  0  0  0
   60.9860    9.8310   31.6480 O   0  5  0  0  0  0  0  0  0  0  0  0
   60.2890    8.2830   33.0650 O   0  0  0  0  0  0  0  0  0  0  0  0
   59.8100    7.7950   28.3200 C   0  0  0  0  0  0  0  0  0  0  0  0
   59.9430    7.8690   30.8180 C   0  0  0  0  0  0  0  0  0  0  0  0
   60.4420    8.7150   31.9290 C   0  0  0  0  0  0  0  0  0  0  0  0
   60.2340    8.4810   29.5200 N   0  3  0  0  0  0  0  0  0  0  0  0
   60.2874    6.8046   28.2869 H   0  0  0  0  0  0  0  0  0  0  0  0
   58.7169    7.6746   28.3445 H   0  0  0  0  0  0  0  0  0  0  0  0
   58.8549    7.7450   30.9212 H   0  0  0  0  0  0  0  0  0  0  0  0
   60.4308    6.8844   30.8687 H   0  0  0  0  0  0  0  0  0  0  0  0
   59.7949    9.3883   29.5144 H   0  0  0  0  0  0  0  0  0  0  0  0
   61.2342    8.5914   29.4613 H   0  0  0  0  0  0  0  0  0  0  0  0
  1  2  1  0  0  0  0
  1  3  1  0  0  0  0
  1  4  2  0  0  0  0
  7  1  1  0  0  0  0
  7 11  1  0  0  0  0
  7 12  1  0  0  0  0
  8  9  1  0  0  0  0
  8 10  1  0  0  0  0
  8 13  1  0  0  0  0
  8 14  1  0  0  0  0
  9  5  1  0  0  0  0
  9  6  2  0  0  0  0
 10  7  1  0  0  0  0
 10 15  1  0  0  0  0
 10 16  1  0  0  0  0
M  CHG  2   5  -1  10   1
M  END
