2vc7_ligand
 OpenBabel08222323333D

 43 43  0  0  1  0  0  0  0  0999 V2000
   16.2390  -18.2480  -10.7330 O   0  0  0  0  0  0  0  0  0  0  0  0
   16.4700  -17.8790  -11.8370 C   0  0  0  0  0  0  0  0  0  0  0  0
   17.2520  -16.8250  -12.0570 N   0  0  0  0  0  0  0  0  0  0  0  0
   19.5510  -14.4730  -10.9680 S   0  0  0  0  0  0  0  0  0  0  0  0
   17.7450  -16.2830  -10.8190 C   0  0  2  0  0  0  0  0  0  0  0  0
   18.0400  -14.8100  -10.7200 C   0  0  0  0  0  0  0  0  0  0  0  0
   17.3430  -13.8940  -10.4630 O   0  0  0  0  0  0  0  0  0  0  0  0
   19.0790  -17.0090  -10.7800 C   0  0  0  0  0  0  0  0  0  0  0  0
   20.1830  -16.0730  -11.2340 C   0  0  0  0  0  0  0  0  0  0  0  0
   15.8300  -18.6480  -12.9040 C   0  0  0  0  0  0  0  0  0  0  0  0
   14.3610  -18.5950  -12.4910 C   0  0  0  0  0  0  0  0  0  0  0  0
   14.0640  -19.4780  -11.3010 C   0  0  0  0  0  0  0  0  0  0  0  0
   14.3630  -20.9520  -11.5230 C   0  0  0  0  0  0  0  0  0  0  0  0
   14.8050  -25.0710  -13.7690 C   0  0  0  0  0  0  0  0  0  0  0  0
   13.3340  -24.8520  -13.5360 C   0  0  0  0  0  0  0  0  0  0  0  0
   13.9860  -21.4720  -12.9090 C   0  0  0  0  0  0  0  0  0  0  0  0
   12.8360  -22.4500  -12.8640 C   0  0  0  0  0  0  0  0  0  0  0  0
   12.8580  -23.4760  -13.9820 C   0  0  0  0  0  0  0  0  0  0  0  0
   17.4681  -16.4586  -12.9620 H   0  0  0  0  0  0  0  0  0  0  0  0
   17.0798  -16.5640   -9.9892 H   0  0  0  0  0  0  0  0  0  0  0  0
   19.0406  -17.8811  -11.4493 H   0  0  0  0  0  0  0  0  0  0  0  0
   19.2832  -17.3441   -9.7524 H   0  0  0  0  0  0  0  0  0  0  0  0
   21.0947  -16.2328  -10.6396 H   0  0  0  0  0  0  0  0  0  0  0  0
   20.4080  -16.2281  -12.2995 H   0  0  0  0  0  0  0  0  0  0  0  0
   16.2015  -19.6830  -12.9296 H   0  0  0  0  0  0  0  0  0  0  0  0
   15.9869  -18.1777  -13.8859 H   0  0  0  0  0  0  0  0  0  0  0  0
   13.7436  -18.9260  -13.3391 H   0  0  0  0  0  0  0  0  0  0  0  0
   14.1039  -17.5570  -12.2333 H   0  0  0  0  0  0  0  0  0  0  0  0
   12.9966  -19.3767  -11.0552 H   0  0  0  0  0  0  0  0  0  0  0  0
   14.6705  -19.1279  -10.4528 H   0  0  0  0  0  0  0  0  0  0  0  0
   13.8042  -21.5327  -10.7743 H   0  0  0  0  0  0  0  0  0  0  0  0
   15.4420  -21.1095  -11.3786 H   0  0  0  0  0  0  0  0  0  0  0  0
   15.0843  -26.0786  -13.4273 H   0  0  0  0  0  0  0  0  0  0  0  0
   15.3809  -24.3207  -13.2075 H   0  0  0  0  0  0  0  0  0  0  0  0
   15.0247  -24.9739  -14.8424 H   0  0  0  0  0  0  0  0  0  0  0  0
   13.1295  -24.9618  -12.4608 H   0  0  0  0  0  0  0  0  0  0  0  0
   12.7732  -25.6150  -14.0958 H   0  0  0  0  0  0  0  0  0  0  0  0
   14.8605  -21.9750  -13.3475 H   0  0  0  0  0  0  0  0  0  0  0  0
   13.6991  -20.6183  -13.5406 H   0  0  0  0  0  0  0  0  0  0  0  0
   11.8960  -21.8829  -12.9327 H   0  0  0  0  0  0  0  0  0  0  0  0
   12.8727  -22.9840  -11.9030 H   0  0  0  0  0  0  0  0  0  0  0  0
   11.8390  -23.5739  -14.3845 H   0  0  0  0  0  0  0  0  0  0  0  0
   13.5315  -23.1143  -14.7729 H   0  0  0  0  0  0  0  0  0  0  0  0
  2  1  2  0  0  0  0
  2  3  1  0  0  0  0
  3  5  1  0  0  0  0
  3 19  1  0  0  0  0
  5  6  1  0  0  0  0
  5  8  1  0  0  0  0
  5 20  1  1  0  0  0
  6  4  1  0  0  0  0
  6  7  2  0  0  0  0
  8  9  1  0  0  0  0
  8 21  1  0  0  0  0
  8 22  1  0  0  0  0
  9  4  1  0  0  0  0
  9 23  1  0  0  0  0
  9 24  1  0  0  0  0
 10  2  1  0  0  0  0
 10 25  1  0  0  0  0
 10 26  1  0  0  0  0
 11 10  1  0  0  0  0
 11 27  1  0  0  0  0
 11 28  1  0  0  0  0
 12 11  1  0  0  0  0
 12 29  1  0  0  0  0
 12 30  1  0  0  0  0
 13 12  1  0  0  0  0
 13 31  1  0  0  0  0
 13 32  1  0  0  0  0
 14 33  1  0  0  0  0
 14 34  1  0  0  0  0
 14 35  1  0  0  0  0
 15 14  1  0  0  0  0
 15 36  1  0  0  0  0
 15 37  1  0  0  0  0
 16 13  1  0  0  0  0
 16 38  1  0  0  0  0
 16 39  1  0  0  0  0
 17 16  1  0  0  0  0
 17 18  1  0  0  0  0
 17 40  1  0  0  0  0
 17 41  1  0  0  0  0
 18 15  1  0  0  0  0
 18 42  1  0  0  0  0
 18 43  1  0  0  0  0
M  END
