3d7b_ligand
 OpenBabel08222323333D

 41 43  0  0  1  0  0  0  0  0999 V2000
   34.7880   -4.5920   12.4660 C   0  0  0  0  0  0  0  0  0  0  0  0
   35.9710   -4.4960   13.1880 C   0  0  0  0  0  0  0  0  0  0  0  0
   36.7710   -3.3640   13.0400 C   0  0  0  0  0  0  0  0  0  0  0  0
   36.3910   -2.3050   12.1840 N   0  0  0  0  0  0  0  0  0  0  0  0
   34.4070   -3.5580   11.6020 N   0  0  0  0  0  0  0  0  0  0  0  0
   41.8210   -1.0330   13.6490 C   0  0  0  0  0  0  0  0  0  0  0  0
   39.7510   -0.6220   14.7610 C   0  0  0  0  0  0  0  0  0  0  0  0
   38.4620   -0.7610   13.9310 C   0  0  2  0  0  0  0  0  0  0  0  0
   38.5660   -1.3530   12.5990 O   0  0  0  0  0  0  0  0  0  0  0  0
   37.9340    0.5980   13.5640 C   0  0  2  0  0  0  0  0  0  0  0  0
   37.4460    1.3310   14.6780 O   0  0  0  0  0  0  0  0  0  0  0  0
   36.7750    0.2180   12.6760 C   0  0  1  0  0  0  0  0  0  0  0  0
   36.7160    1.2770   11.7260 O   0  0  0  0  0  0  0  0  0  0  0  0
   37.2630   -1.0930   12.0120 C   0  0  2  0  0  0  0  0  0  0  0  0
   34.0700   -5.5840   12.5750 O   0  0  0  0  0  0  0  0  0  0  0  0
   35.2020   -2.4120   11.4570 C   0  0  0  0  0  0  0  0  0  0  0  0
   34.8450   -1.5110   10.7030 O   0  0  0  0  0  0  0  0  0  0  0  0
   41.3370   -2.1220   15.7040 C   0  0  0  0  0  0  0  0  0  0  0  0
   42.8030   -1.6820   15.6860 C   0  0  0  0  0  0  0  0  0  0  0  0
   43.1050   -1.6430   14.1990 C   0  0  0  0  0  0  0  0  0  0  0  0
   40.7370   -1.6580   14.4320 N   0  3  0  0  0  0  0  0  0  0  0  0
   36.2703   -5.2968   13.8626 H   0  0  0  0  0  0  0  0  0  0  0  0
   37.7059   -3.2942   13.5940 H   0  0  0  0  0  0  0  0  0  0  0  0
   33.5568   -3.6379   11.0816 H   0  0  0  0  0  0  0  0  0  0  0  0
   41.7093   -1.2654   12.5797 H   0  0  0  0  0  0  0  0  0  0  0  0
   41.8200    0.0580   13.7892 H   0  0  0  0  0  0  0  0  0  0  0  0
   39.4957   -0.7022   15.8279 H   0  0  0  0  0  0  0  0  0  0  0  0
   40.1949    0.3649   14.5633 H   0  0  0  0  0  0  0  0  0  0  0  0
   37.7343   -1.3254   14.5325 H   0  0  0  0  0  0  0  0  0  0  0  0
   38.6908    1.1919   13.0307 H   0  0  0  0  0  0  0  0  0  0  0  0
   37.1276    2.1765   14.3844 H   0  0  0  0  0  0  0  0  0  0  0  0
   35.8245    0.0873   13.2141 H   0  0  0  0  0  0  0  0  0  0  0  0
   36.5688    2.0991   12.1786 H   0  0  0  0  0  0  0  0  0  0  0  0
   37.3697   -0.9133   10.9320 H   0  0  0  0  0  0  0  0  0  0  0  0
   40.8148   -1.6658   16.5579 H   0  0  0  0  0  0  0  0  0  0  0  0
   41.2710   -3.2176   15.7766 H   0  0  0  0  0  0  0  0  0  0  0  0
   43.4446   -2.4095   16.2047 H   0  0  0  0  0  0  0  0  0  0  0  0
   42.9279   -0.6901   16.1449 H   0  0  0  0  0  0  0  0  0  0  0  0
   43.9772   -1.0089   13.9818 H   0  0  0  0  0  0  0  0  0  0  0  0
   43.2760   -2.6523   13.7963 H   0  0  0  0  0  0  0  0  0  0  0  0
   40.3112   -2.4187   13.9260 H   0  0  0  0  0  0  0  0  0  0  0  0
  1 15  2  0  0  0  0
  2  1  1  0  0  0  0
  2 22  1  0  0  0  0
  3  2  2  0  0  0  0
  3 23  1  0  0  0  0
  4  3  1  0  0  0  0
  4 16  1  0  0  0  0
  5  1  1  0  0  0  0
  5 24  1  0  0  0  0
  6 20  1  0  0  0  0
  6 25  1  0  0  0  0
  6 26  1  0  0  0  0
  7  8  1  0  0  0  0
  7 27  1  0  0  0  0
  7 28  1  0  0  0  0
  8  9  1  0  0  0  0
  8 10  1  0  0  0  0
  8 29  1  1  0  0  0
  9 14  1  0  0  0  0
 10 11  1  0  0  0  0
 10 12  1  0  0  0  0
 10 30  1  6  0  0  0
 11 31  1  0  0  0  0
 12 13  1  0  0  0  0
 12 14  1  0  0  0  0
 12 32  1  1  0  0  0
 13 33  1  0  0  0  0
 14  4  1  0  0  0  0
 14 34  1  6  0  0  0
 16  5  1  0  0  0  0
 16 17  2  0  0  0  0
 18 19  1  0  0  0  0
 18 21  1  0  0  0  0
 18 35  1  0  0  0  0
 18 36  1  0  0  0  0
 19 20  1  0  0  0  0
 19 37  1  0  0  0  0
 19 38  1  0  0  0  0
 20 39  1  0  0  0  0
 20 40  1  0  0  0  0
 21  6  1  0  0  0  0
 21  7  1  0  0  0  0
 21 41  1  0  0  0  0
M  CHG  1  21   1
M  END
