3g2h_ligand
 OpenBabel08222323333D

 39 41  0  0  1  0  0  0  0  0999 V2000
   37.3570   23.5390   30.4350 C   0  0  0  0  0  0  0  0  0  0  0  0
   38.5770   23.8620   31.0310 C   0  0  0  0  0  0  0  0  0  0  0  0
   38.6730   24.9760   31.8620 C   0  0  0  0  0  0  0  0  0  0  0  0
   37.5590   25.7710   32.1040 C   0  0  0  0  0  0  0  0  0  0  0  0
   36.3390   25.4520   31.5030 C   0  0  0  0  0  0  0  0  0  0  0  0
   36.2390   24.3330   30.6690 C   0  0  0  0  0  0  0  0  0  0  0  0
   35.0210   24.0160   30.0760 C   0  0  0  0  0  0  0  0  0  0  0  0
   34.8170   23.3270   28.9590 C   0  0  0  0  0  0  0  0  0  0  0  0
   33.8170   24.3370   30.5330 N   0  0  0  0  0  0  0  0  0  0  0  0
   32.9580   23.8970   29.7570 N   0  0  0  0  0  0  0  0  0  0  0  0
   33.4960   23.3110   28.8150 N   0  0  0  0  0  0  0  0  0  0  0  0
   32.6900   22.6760   27.7700 C   0  0  2  0  0  0  0  0  0  0  0  0
   32.7500   21.2560   27.9940 O   0  0  0  0  0  0  0  0  0  0  0  0
   31.7020   20.6010   27.2510 C   0  0  2  0  0  0  0  0  0  0  0  0
   31.6660   19.1380   27.6850 C   0  0  0  0  0  0  0  0  0  0  0  0
   32.7720   18.4660   27.0880 O   0  0  0  0  0  0  0  0  0  0  0  0
   31.9110   20.7800   25.7330 C   0  0  1  0  0  0  0  0  0  0  0  0
   30.7450   20.3190   25.0550 O   0  0  0  0  0  0  0  0  0  0  0  0
   32.1080   22.2630   25.3770 C   0  0  2  0  0  0  0  0  0  0  0  0
   32.5420   22.3870   24.0260 O   0  0  0  0  0  0  0  0  0  0  0  0
   33.1230   22.9260   26.3190 C   0  0  1  0  0  0  0  0  0  0  0  0
   33.1770   24.3240   26.0630 O   0  0  0  0  0  0  0  0  0  0  0  0
   37.2808   22.6706   29.7907 H   0  0  0  0  0  0  0  0  0  0  0  0
   39.4499   23.2460   30.8473 H   0  0  0  0  0  0  0  0  0  0  0  0
   39.6223   25.2243   32.3227 H   0  0  0  0  0  0  0  0  0  0  0  0
   37.6364   26.6339   32.7555 H   0  0  0  0  0  0  0  0  0  0  0  0
   35.4684   26.0723   31.6830 H   0  0  0  0  0  0  0  0  0  0  0  0
   35.5643   22.8764   28.3075 H   0  0  0  0  0  0  0  0  0  0  0  0
   31.6538   23.0285   27.8797 H   0  0  0  0  0  0  0  0  0  0  0  0
   30.7390   21.0634   27.5134 H   0  0  0  0  0  0  0  0  0  0  0  0
   30.7256   18.6744   27.3521 H   0  0  0  0  0  0  0  0  0  0  0  0
   31.7390   19.0733   28.7807 H   0  0  0  0  0  0  0  0  0  0  0  0
   33.5810   18.8719   27.3766 H   0  0  0  0  0  0  0  0  0  0  0  0
   32.7899   20.2017   25.4118 H   0  0  0  0  0  0  0  0  0  0  0  0
   29.9933   20.8252   25.3401 H   0  0  0  0  0  0  0  0  0  0  0  0
   31.1427   22.7790   25.4858 H   0  0  0  0  0  0  0  0  0  0  0  0
   32.6608   23.3058   23.8158 H   0  0  0  0  0  0  0  0  0  0  0  0
   34.1182   22.4879   26.1529 H   0  0  0  0  0  0  0  0  0  0  0  0
   32.3186   24.7046   26.2074 H   0  0  0  0  0  0  0  0  0  0  0  0
  1  2  2  0  0  0  0
  1  6  1  0  0  0  0
  1 23  1  0  0  0  0
  2  3  1  0  0  0  0
  2 24  1  0  0  0  0
  3  4  2  0  0  0  0
  3 25  1  0  0  0  0
  4  5  1  0  0  0  0
  4 26  1  0  0  0  0
  5  6  2  0  0  0  0
  5 27  1  0  0  0  0
  6  7  1  0  0  0  0
  7  8  2  0  0  0  0
  7  9  1  0  0  0  0
  8 11  1  0  0  0  0
  8 28  1  0  0  0  0
  9 10  2  0  0  0  0
 10 11  1  0  0  0  0
 11 12  1  0  0  0  0
 12 13  1  0  0  0  0
 12 21  1  0  0  0  0
 12 29  1  1  0  0  0
 13 14  1  0  0  0  0
 14 15  1  0  0  0  0
 14 17  1  0  0  0  0
 14 30  1  1  0  0  0
 15 16  1  0  0  0  0
 15 31  1  0  0  0  0
 15 32  1  0  0  0  0
 16 33  1  0  0  0  0
 17 18  1  0  0  0  0
 17 19  1  0  0  0  0
 17 34  1  6  0  0  0
 18 35  1  0  0  0  0
 19 20  1  0  0  0  0
 19 21  1  0  0  0  0
 19 36  1  1  0  0  0
 20 37  1  0  0  0  0
 21 22  1  0  0  0  0
 21 38  1  6  0  0  0
 22 39  1  0  0  0  0
M  END
