3g3r_ligand
 OpenBabel08222323333D

 14 13  0  0  0  0  0  0  0  0999 V2000
   13.4240   16.9860   15.7500 P   0  0  0  0  0  0  0  0  0  0  0  0
   13.4640   18.3830   15.2750 O   0  0  0  0  0  1  0  0  0  0  0  0
   13.9110   17.0400   17.2770 O   0  0  0  0  0  1  0  0  0  0  0  0
   14.4880   15.9260   15.2520 O   0  0  0  0  0  0  0  0  0  0  0  0
   11.5650   14.9580   14.8860 P   0  0  1  0  0  0  0  0  0  0  0  0
   10.0120   14.8930   15.1850 O   0  0  0  0  0  1  0  0  0  0  0  0
   12.0990   15.1990   13.5280 O   0  0  0  0  0  0  0  0  0  0  0  0
   11.8990   16.3360   15.7360 N   0  0  0  0  0  0  0  0  0  0  0  0
   12.5900   12.2090   14.9600 P   0  0  0  0  0  0  0  0  0  0  0  0
   13.4870   12.6320   13.7440 O   0  0  0  0  0  1  0  0  0  0  0  0
   11.5480   11.2950   14.2310 O   0  0  0  0  0  1  0  0  0  0  0  0
   12.0370   13.5780   15.5050 O   0  0  0  0  0  0  0  0  0  0  0  0
   13.2570   11.5830   16.1130 O   0  0  0  0  0  0  0  0  0  0  0  0
   11.1686   16.7852   16.2506 H   0  0  0  0  0  0  0  0  0  0  0  0
  1  2  1  0  0  0  0
  1  3  1  0  0  0  0
  1  4  2  0  0  0  0
  5  6  1  6  0  0  0
  5  7  2  0  0  0  0
  5  8  1  0  0  0  0
  8  1  1  0  0  0  0
  8 14  1  0  0  0  0
  9 10  1  0  0  0  0
  9 11  1  0  0  0  0
  9 12  1  0  0  0  0
  9 13  2  0  0  0  0
 12  5  1  0  0  0  0
M  END
