3l6h_ligand
 OpenBabel08222323333D

 19 18  0  0  0  0  0  0  0  0999 V2000
   19.3700   -4.7470   50.0060 N   0  3  0  0  0  0  0  0  0  0  0  0
   20.2490   -4.1690   48.9660 C   0  0  0  0  0  0  0  0  0  0  0  0
   21.4130   -3.3540   49.4900 C   0  0  0  0  0  0  0  0  0  0  0  0
   21.3630   -2.8290   50.6290 O   0  5  0  0  0  0  0  0  0  0  0  0
   22.4060   -3.2320   48.7390 O   0  0  0  0  0  0  0  0  0  0  0  0
   18.5440   -5.7970   49.3880 C   0  0  0  0  0  0  0  0  0  0  0  0
   18.4800   -3.7070   50.5470 C   0  0  0  0  0  0  0  0  0  0  0  0
   20.1420   -5.3570   51.1030 C   0  0  0  0  0  0  0  0  0  0  0  0
   19.6367   -3.5165   48.3262 H   0  0  0  0  0  0  0  0  0  0  0  0
   20.6551   -4.9958   48.3648 H   0  0  0  0  0  0  0  0  0  0  0  0
   17.8830   -6.2385   50.1484 H   0  0  0  0  0  0  0  0  0  0  0  0
   19.1961   -6.5784   48.9707 H   0  0  0  0  0  0  0  0  0  0  0  0
   17.9356   -5.3587   48.5832 H   0  0  0  0  0  0  0  0  0  0  0  0
   19.0835   -2.9140   51.0129 H   0  0  0  0  0  0  0  0  0  0  0  0
   17.8131   -4.1509   51.3008 H   0  0  0  0  0  0  0  0  0  0  0  0
   17.8784   -3.2788   49.7317 H   0  0  0  0  0  0  0  0  0  0  0  0
   20.8062   -6.1337   50.6962 H   0  0  0  0  0  0  0  0  0  0  0  0
   19.4515   -5.8091   51.8301 H   0  0  0  0  0  0  0  0  0  0  0  0
   20.7447   -4.5836   51.6015 H   0  0  0  0  0  0  0  0  0  0  0  0
  1  2  1  0  0  0  0
  1  6  1  0  0  0  0
  1  7  1  0  0  0  0
  1  8  1  0  0  0  0
  2  3  1  0  0  0  0
  2  9  1  0  0  0  0
  2 10  1  0  0  0  0
  3  4  1  0  0  0  0
  3  5  2  0  0  0  0
  6 11  1  0  0  0  0
  6 12  1  0  0  0  0
  6 13  1  0  0  0  0
  7 14  1  0  0  0  0
  7 15  1  0  0  0  0
  7 16  1  0  0  0  0
  8 17  1  0  0  0  0
  8 18  1  0  0  0  0
  8 19  1  0  0  0  0
M  CHG  2   1   1   4  -1
M  END
