3n7h_ligand
 OpenBabel08222323333D

 31 31  0  0  0  0  0  0  0  0999 V2000
   13.7050    4.1300   14.6610 C   0  0  0  0  0  0  0  0  0  0  0  0
   12.8460    3.0480   14.4360 C   0  0  0  0  0  0  0  0  0  0  0  0
   15.0550    3.8920   14.9340 C   0  0  0  0  0  0  0  0  0  0  0  0
   13.3410    1.7470   14.4470 C   0  0  0  0  0  0  0  0  0  0  0  0
   14.6900    1.5140   14.6970 C   0  0  0  0  0  0  0  0  0  0  0  0
   15.5510    2.5870   14.9370 C   0  0  0  0  0  0  0  0  0  0  0  0
   12.4140    0.5620   14.1720 C   0  0  0  0  0  0  0  0  0  0  0  0
   13.1370    5.5550   14.6580 C   0  0  0  0  0  0  0  0  0  0  0  0
   12.1740    8.0630   12.8880 C   0  0  0  0  0  0  0  0  0  0  0  0
   15.0260    6.3000   13.2120 C   0  0  0  0  0  0  0  0  0  0  0  0
   13.2470    7.9070   13.9640 C   0  0  0  0  0  0  0  0  0  0  0  0
   16.1320    7.1520   13.7660 C   0  0  0  0  0  0  0  0  0  0  0  0
   13.7580    6.5210   13.9260 N   0  0  0  0  0  0  0  0  0  0  0  0
   12.1130    5.7820   15.2990 O   0  0  0  0  0  0  0  0  0  0  0  0
   11.7922    3.2237   14.2526 H   0  0  0  0  0  0  0  0  0  0  0  0
   15.7187    4.7230   15.1440 H   0  0  0  0  0  0  0  0  0  0  0  0
   15.0724    0.4997   14.7054 H   0  0  0  0  0  0  0  0  0  0  0  0
   16.6032    2.4068   15.1254 H   0  0  0  0  0  0  0  0  0  0  0  0
   11.3919    0.9290   13.9972 H   0  0  0  0  0  0  0  0  0  0  0  0
   12.4172   -0.1150   15.0390 H   0  0  0  0  0  0  0  0  0  0  0  0
   12.7661    0.0198   13.2820 H   0  0  0  0  0  0  0  0  0  0  0  0
   11.7844    9.0915   12.9051 H   0  0  0  0  0  0  0  0  0  0  0  0
   11.3535    7.3569   13.0832 H   0  0  0  0  0  0  0  0  0  0  0  0
   12.6114    7.8530   11.9008 H   0  0  0  0  0  0  0  0  0  0  0  0
   15.3093    5.2415   13.3082 H   0  0  0  0  0  0  0  0  0  0  0  0
   14.8843    6.5466   12.1494 H   0  0  0  0  0  0  0  0  0  0  0  0
   12.8124    8.1142   14.9530 H   0  0  0  0  0  0  0  0  0  0  0  0
   14.0703    8.6104   13.7705 H   0  0  0  0  0  0  0  0  0  0  0  0
   17.0594    6.9579   13.2072 H   0  0  0  0  0  0  0  0  0  0  0  0
   16.2858    6.9085   14.8276 H   0  0  0  0  0  0  0  0  0  0  0  0
   15.8608    8.2136   13.6689 H   0  0  0  0  0  0  0  0  0  0  0  0
  1  2  2  0  0  0  0
  1  3  1  0  0  0  0
  2  4  1  0  0  0  0
  2 15  1  0  0  0  0
  3  6  2  0  0  0  0
  3 16  1  0  0  0  0
  4  5  2  0  0  0  0
  4  7  1  0  0  0  0
  5 17  1  0  0  0  0
  6  5  1  0  0  0  0
  6 18  1  0  0  0  0
  7 19  1  0  0  0  0
  7 20  1  0  0  0  0
  7 21  1  0  0  0  0
  8  1  1  0  0  0  0
  8 14  2  0  0  0  0
  9 22  1  0  0  0  0
  9 23  1  0  0  0  0
  9 24  1  0  0  0  0
 10 12  1  0  0  0  0
 10 25  1  0  0  0  0
 10 26  1  0  0  0  0
 11  9  1  0  0  0  0
 11 13  1  0  0  0  0
 11 27  1  0  0  0  0
 11 28  1  0  0  0  0
 12 29  1  0  0  0  0
 12 30  1  0  0  0  0
 12 31  1  0  0  0  0
 13  8  1  0  0  0  0
 13 10  1  0  0  0  0
M  END
