3sus_ligand
 OpenBabel08222323333D

 30 31  0  0  1  0  0  0  0  0999 V2000
  -35.4970  -18.9580  -15.9290 C   0  0  2  0  0  0  0  0  0  0  0  0
  -34.0010  -20.0150  -15.7780 S   0  0  0  0  0  0  0  0  0  0  0  0
  -35.1140  -17.9510  -17.0600 C   0  0  2  0  0  0  0  0  0  0  0  0
  -34.2990  -18.7670  -18.0160 N   0  3  0  0  0  0  0  0  0  0  0  0
  -34.3640  -16.6830  -16.5490 C   0  0  1  0  0  0  0  0  0  0  0  0
  -34.3990  -15.6270  -17.5280 O   0  0  0  0  0  0  0  0  0  0  0  0
  -34.9200  -16.1510  -15.2040 C   0  0  1  0  0  0  0  0  0  0  0  0
  -36.2660  -15.6640  -15.3800 O   0  0  0  0  0  0  0  0  0  0  0  0
  -34.9120  -17.2890  -14.1730 C   0  0  2  0  0  0  0  0  0  0  0  0
  -35.8040  -18.3330  -14.6730 O   0  0  0  0  0  0  0  0  0  0  0  0
  -35.3990  -16.8750  -12.7870 C   0  0  0  0  0  0  0  0  0  0  0  0
  -35.1650  -17.9440  -11.8680 O   0  0  0  0  0  0  0  0  0  0  0  0
  -33.1880  -19.3960  -17.2780 C   0  0  2  0  0  0  0  0  0  0  0  0
  -32.5030  -20.5080  -18.0620 C   0  0  0  0  0  0  0  0  0  0  0  0
  -36.3644  -19.5584  -16.2406 H   0  0  0  0  0  0  0  0  0  0  0  0
  -36.0306  -17.6099  -17.5635 H   0  0  0  0  0  0  0  0  0  0  0  0
  -33.9299  -18.1712  -18.7405 H   0  0  0  0  0  0  0  0  0  0  0  0
  -34.8774  -19.4810  -18.4303 H   0  0  0  0  0  0  0  0  0  0  0  0
  -33.3131  -16.9657  -16.3887 H   0  0  0  0  0  0  0  0  0  0  0  0
  -35.3021  -15.3935  -17.7082 H   0  0  0  0  0  0  0  0  0  0  0  0
  -34.2822  -15.3293  -14.8463 H   0  0  0  0  0  0  0  0  0  0  0  0
  -36.8199  -16.3717  -15.6882 H   0  0  0  0  0  0  0  0  0  0  0  0
  -33.8876  -17.6797  -14.0838 H   0  0  0  0  0  0  0  0  0  0  0  0
  -36.4756  -16.6529  -12.8265 H   0  0  0  0  0  0  0  0  0  0  0  0
  -34.8517  -15.9797  -12.4570 H   0  0  0  0  0  0  0  0  0  0  0  0
  -35.6379  -18.7162  -12.1552 H   0  0  0  0  0  0  0  0  0  0  0  0
  -32.4315  -18.6410  -17.0180 H   0  0  0  0  0  0  0  0  0  0  0  0
  -32.0267  -20.0847  -18.9586 H   0  0  0  0  0  0  0  0  0  0  0  0
  -33.2493  -21.2580  -18.3628 H   0  0  0  0  0  0  0  0  0  0  0  0
  -31.7383  -20.9843  -17.4308 H   0  0  0  0  0  0  0  0  0  0  0  0
  1  2  1  0  0  0  0
  1  3  1  0  0  0  0
  1 10  1  0  0  0  0
  1 15  1  6  0  0  0
  2 13  1  0  0  0  0
  3  4  1  0  0  0  0
  3  5  1  0  0  0  0
  3 16  1  6  0  0  0
  4 13  1  0  0  0  0
  4 17  1  0  0  0  0
  4 18  1  0  0  0  0
  5  6  1  0  0  0  0
  5  7  1  0  0  0  0
  5 19  1  1  0  0  0
  6 20  1  0  0  0  0
  7  8  1  0  0  0  0
  7  9  1  0  0  0  0
  7 21  1  1  0  0  0
  8 22  1  0  0  0  0
  9 10  1  0  0  0  0
  9 11  1  0  0  0  0
  9 23  1  1  0  0  0
 11 12  1  0  0  0  0
 11 24  1  0  0  0  0
 11 25  1  0  0  0  0
 12 26  1  0  0  0  0
 13 14  1  0  0  0  0
 13 27  1  1  0  0  0
 14 28  1  0  0  0  0
 14 29  1  0  0  0  0
 14 30  1  0  0  0  0
M  CHG  1   4   1
M  END
