4qxq_ligand
 OpenBabel08222323333D

 34 36  0  0  0  0  0  0  0  0999 V2000
  162.9910   49.0380    5.5650 O   0  0  0  0  0  0  0  0  0  0  0  0
  163.9510   49.6930    5.1370 C   0  0  0  0  0  0  0  0  0  0  0  0
  165.0120   50.0820    5.9480 C   0  0  0  0  0  0  0  0  0  0  0  0
  165.0240   49.7980    7.3060 C   0  0  0  0  0  0  0  0  0  0  0  0
  166.1300   50.1710    8.0710 C   0  0  0  0  0  0  0  0  0  0  0  0
  167.2370   50.8420    7.4990 C   0  0  0  0  0  0  0  0  0  0  0  0
  168.3860   51.2460    8.2850 C   0  0  0  0  0  0  0  0  0  0  0  0
  167.2000   51.1630    6.1350 C   0  0  0  0  0  0  0  0  0  0  0  0
  168.2480   51.8690    5.4870 C   0  0  0  0  0  0  0  0  0  0  0  0
  166.0560   50.8210    5.4260 C   0  0  0  0  0  0  0  0  0  0  0  0
  166.0980   51.0930    4.1160 O   0  0  0  0  0  0  0  0  0  0  0  0
  165.1250   50.6610    3.2800 C   0  0  0  0  0  0  0  0  0  0  0  0
  164.0300   49.9890    3.7870 C   0  0  0  0  0  0  0  0  0  0  0  0
  163.0500   49.5420    2.8930 C   0  0  0  0  0  0  0  0  0  0  0  0
  163.1480   49.8310    1.5330 C   0  0  0  0  0  0  0  0  0  0  0  0
  164.2570   50.5330    1.0420 C   0  0  0  0  0  0  0  0  0  0  0  0
  165.2500   50.9930    1.9250 C   0  0  0  0  0  0  0  0  0  0  0  0
  166.3860   51.7240    1.4620 C   0  0  0  0  0  0  0  0  0  0  0  0
  167.7890   51.1310    1.7520 C   0  0  0  0  0  0  0  0  0  0  0  0
  167.8930   49.9350    2.1480 O   0  5  0  0  0  0  0  0  0  0  0  0
  168.7310   51.9310    1.5520 O   0  0  0  0  0  0  0  0  0  0  0  0
  164.1837   49.2921    7.7676 H   0  0  0  0  0  0  0  0  0  0  0  0
  166.1415   49.9409    9.1302 H   0  0  0  0  0  0  0  0  0  0  0  0
  168.2523   50.9165    9.3259 H   0  0  0  0  0  0  0  0  0  0  0  0
  168.4828   52.3414    8.2568 H   0  0  0  0  0  0  0  0  0  0  0  0
  169.2948   50.7867    7.8689 H   0  0  0  0  0  0  0  0  0  0  0  0
  169.0646   52.0501    6.2014 H   0  0  0  0  0  0  0  0  0  0  0  0
  167.8665   52.8312    5.1147 H   0  0  0  0  0  0  0  0  0  0  0  0
  168.6248   51.2726    4.6430 H   0  0  0  0  0  0  0  0  0  0  0  0
  162.2083   48.9666    3.2613 H   0  0  0  0  0  0  0  0  0  0  0  0
  162.3653   49.5123    0.8542 H   0  0  0  0  0  0  0  0  0  0  0  0
  164.3496   50.7219   -0.0214 H   0  0  0  0  0  0  0  0  0  0  0  0
  166.3477   52.7204    1.9264 H   0  0  0  0  0  0  0  0  0  0  0  0
  166.2904   51.8241    0.3708 H   0  0  0  0  0  0  0  0  0  0  0  0
  1  2  2  0  0  0  0
  2  3  1  0  0  0  0
  2 13  1  0  0  0  0
  3  4  2  0  0  0  0
  3 10  1  0  0  0  0
  4  5  1  0  0  0  0
  4 22  1  0  0  0  0
  5  6  2  0  0  0  0
  5 23  1  0  0  0  0
  6  7  1  0  0  0  0
  6  8  1  0  0  0  0
  7 24  1  0  0  0  0
  7 25  1  0  0  0  0
  7 26  1  0  0  0  0
  8  9  1  0  0  0  0
  8 10  2  0  0  0  0
  9 27  1  0  0  0  0
  9 28  1  0  0  0  0
  9 29  1  0  0  0  0
 10 11  1  0  0  0  0
 11 12  1  0  0  0  0
 12 13  2  0  0  0  0
 12 17  1  0  0  0  0
 13 14  1  0  0  0  0
 14 15  2  0  0  0  0
 14 30  1  0  0  0  0
 15 16  1  0  0  0  0
 15 31  1  0  0  0  0
 16 17  2  0  0  0  0
 16 32  1  0  0  0  0
 17 18  1  0  0  0  0
 18 19  1  0  0  0  0
 18 33  1  0  0  0  0
 18 34  1  0  0  0  0
 19 20  1  0  0  0  0
 19 21  2  0  0  0  0
M  CHG  1  20  -1
M  END
