4yhq_ligand
 OpenBabel08222323333D

 75 78  0  0  1  0  0  0  0  0999 V2000
  -18.0230    0.0850   -6.4920 N   0  0  0  0  0  0  0  0  0  0  0  0
  -17.6380    0.0220   -5.1850 C   0  0  0  0  0  0  0  0  0  0  0  0
  -18.0380   -1.0480   -4.3970 C   0  0  0  0  0  0  0  0  0  0  0  0
  -17.6860   -1.1330   -3.0480 C   0  0  0  0  0  0  0  0  0  0  0  0
  -16.8660   -0.1740   -2.4350 C   0  0  0  0  0  0  0  0  0  0  0  0
  -16.4890    0.9100   -3.2500 C   0  0  0  0  0  0  0  0  0  0  0  0
  -16.8570    1.0240   -4.6280 C   0  0  0  0  0  0  0  0  0  0  0  0
  -16.4840   -0.2170   -0.8150 S   0  0  0  0  0  0  0  0  0  0  0  0
  -16.5810   -1.5760   -0.3580 O   0  0  0  0  0  0  0  0  0  0  0  0
  -15.2290    0.4640   -0.6020 O   0  0  0  0  0  0  0  0  0  0  0  0
  -17.5610    0.5810   -0.0080 N   0  0  0  0  0  0  0  0  0  0  0  0
  -17.5500    2.0700   -0.1410 C   0  0  0  0  0  0  0  0  0  0  0  0
  -18.0150    2.8660    1.0590 C   0  0  0  0  0  0  0  0  0  0  0  0
  -16.9780    2.7290    2.1810 C   0  0  0  0  0  0  0  0  0  0  0  0
  -18.1730    4.3620    0.8040 C   0  0  0  0  0  0  0  0  0  0  0  0
  -18.8380   -0.1160    0.2960 C   0  0  0  0  0  0  0  0  0  0  0  0
  -19.0980   -0.4140    1.7600 C   0  0  1  0  0  0  0  0  0  0  0  0
  -20.4920   -0.7600    1.8940 O   0  0  0  0  0  0  0  0  0  0  0  0
  -18.2270   -1.5680    2.2440 C   0  0  1  0  0  0  0  0  0  0  0  0
  -18.3230   -1.6660    3.7230 N   0  0  0  0  0  0  0  0  0  0  0  0
  -17.3730   -1.1410    4.5410 C   0  0  0  0  0  0  0  0  0  0  0  0
  -16.3310   -0.6330    4.2700 O   0  0  0  0  0  0  0  0  0  0  0  0
  -17.7110   -1.3240    5.8890 O   0  0  0  0  0  0  0  0  0  0  0  0
  -16.7470   -1.1070    6.9280 C   0  0  1  0  0  0  0  0  0  0  0  0
  -17.4530   -0.2560    7.9730 C   0  0  0  0  0  0  0  0  0  0  0  0
  -18.2420   -1.2170    8.6900 O   0  0  0  0  0  0  0  0  0  0  0  0
  -17.5870   -2.4880    8.6830 C   0  0  1  0  0  0  0  0  0  0  0  0
  -18.4870   -3.4230    8.0230 O   0  0  0  0  0  0  0  0  0  0  0  0
  -17.9900   -3.9800    6.8110 C   0  0  0  0  0  0  0  0  0  0  0  0
  -16.5090   -3.6740    6.8410 C   0  0  0  0  0  0  0  0  0  0  0  0
  -16.4260   -2.4020    7.7140 C   0  0  1  0  0  0  0  0  0  0  0  0
  -18.6050   -2.9680    1.7000 C   0  0  0  0  0  0  0  0  0  0  0  0
  -18.1170   -4.9340    3.2090 C   0  0  0  0  0  0  0  0  0  0  0  0
  -17.3130   -5.9150    3.7790 C   0  0  0  0  0  0  0  0  0  0  0  0
  -15.9570   -5.8930    3.4610 C   0  0  0  0  0  0  0  0  0  0  0  0
  -15.4300   -4.9450    2.5730 C   0  0  0  0  0  0  0  0  0  0  0  0
  -16.2790   -3.9690    1.9980 C   0  0  0  0  0  0  0  0  0  0  0  0
  -17.6290   -3.9930    2.2760 C   0  0  0  0  0  0  0  0  0  0  0  0
  -15.9970   -3.4950    5.6030 F   0  0  0  0  0  0  0  0  0  0  0  0
  -15.7040   -4.5000    7.4530 F   0  0  0  0  0  0  0  0  0  0  0  0
  -18.6029   -0.6649   -6.8948 H   0  0  0  0  0  0  0  0  0  0  0  0
  -17.7338    0.8825   -7.0762 H   0  0  0  0  0  0  0  0  0  0  0  0
  -18.6374   -1.8359   -4.8386 H   0  0  0  0  0  0  0  0  0  0  0  0
  -18.0569   -1.9634   -2.4581 H   0  0  0  0  0  0  0  0  0  0  0  0
  -15.8890    1.6990   -2.8111 H   0  0  0  0  0  0  0  0  0  0  0  0
  -16.5338    1.8716   -5.2214 H   0  0  0  0  0  0  0  0  0  0  0  0
  -18.2013    2.3333   -0.9875 H   0  0  0  0  0  0  0  0  0  0  0  0
  -16.5173    2.3765   -0.3637 H   0  0  0  0  0  0  0  0  0  0  0  0
  -18.9817    2.4586    1.3898 H   0  0  0  0  0  0  0  0  0  0  0  0
  -17.3084    3.3051    3.0579 H   0  0  0  0  0  0  0  0  0  0  0  0
  -16.0083    3.1146    1.8332 H   0  0  0  0  0  0  0  0  0  0  0  0
  -16.8737    1.6692    2.4566 H   0  0  0  0  0  0  0  0  0  0  0  0
  -18.9099    4.5216    0.0031 H   0  0  0  0  0  0  0  0  0  0  0  0
  -17.2046    4.7866    0.5010 H   0  0  0  0  0  0  0  0  0  0  0  0
  -18.5185    4.8563    1.7239 H   0  0  0  0  0  0  0  0  0  0  0  0
  -18.8377   -1.0723   -0.2476 H   0  0  0  0  0  0  0  0  0  0  0  0
  -19.6615    0.5142   -0.0710 H   0  0  0  0  0  0  0  0  0  0  0  0
  -18.8776    0.4798    2.3621 H   0  0  0  0  0  0  0  0  0  0  0  0
  -20.6801   -1.5240    1.3616 H   0  0  0  0  0  0  0  0  0  0  0  0
  -17.1888   -1.3507    1.9526 H   0  0  0  0  0  0  0  0  0  0  0  0
  -19.1094   -2.1318    4.1287 H   0  0  0  0  0  0  0  0  0  0  0  0
  -15.8360   -0.6358    6.5305 H   0  0  0  0  0  0  0  0  0  0  0  0
  -18.0906    0.5046    7.4989 H   0  0  0  0  0  0  0  0  0  0  0  0
  -16.7281    0.2360    8.6382 H   0  0  0  0  0  0  0  0  0  0  0  0
  -17.2867   -2.8094    9.6912 H   0  0  0  0  0  0  0  0  0  0  0  0
  -18.4681   -3.5081    5.9400 H   0  0  0  0  0  0  0  0  0  0  0  0
  -18.1633   -5.0658    6.7809 H   0  0  0  0  0  0  0  0  0  0  0  0
  -15.4501   -2.3366    8.2172 H   0  0  0  0  0  0  0  0  0  0  0  0
  -18.5390   -2.9694    0.6020 H   0  0  0  0  0  0  0  0  0  0  0  0
  -19.6310   -3.2202    2.0061 H   0  0  0  0  0  0  0  0  0  0  0  0
  -19.1623   -4.8898    3.4928 H   0  0  0  0  0  0  0  0  0  0  0  0
  -17.7246   -6.6660    4.4435 H   0  0  0  0  0  0  0  0  0  0  0  0
  -15.2951   -6.6247    3.9099 H   0  0  0  0  0  0  0  0  0  0  0  0
  -14.3744   -4.9592    2.3271 H   0  0  0  0  0  0  0  0  0  0  0  0
  -15.8702   -3.2078    1.3434 H   0  0  0  0  0  0  0  0  0  0  0  0
  1 41  1  0  0  0  0
  1 42  1  0  0  0  0
  2  1  1  0  0  0  0
  3  2  2  0  0  0  0
  3 43  1  0  0  0  0
  4  3  1  0  0  0  0
  4 44  1  0  0  0  0
  5  4  2  0  0  0  0
  5  6  1  0  0  0  0
  6  7  2  0  0  0  0
  6 45  1  0  0  0  0
  7  2  1  0  0  0  0
  7 46  1  0  0  0  0
  8  5  1  0  0  0  0
  8  9  2  0  0  0  0
  8 10  2  0  0  0  0
 11  8  1  0  0  0  0
 11 12  1  0  0  0  0
 12 13  1  0  0  0  0
 12 47  1  0  0  0  0
 12 48  1  0  0  0  0
 13 14  1  0  0  0  0
 13 15  1  0  0  0  0
 13 49  1  0  0  0  0
 14 50  1  0  0  0  0
 14 51  1  0  0  0  0
 14 52  1  0  0  0  0
 15 53  1  0  0  0  0
 15 54  1  0  0  0  0
 15 55  1  0  0  0  0
 16 11  1  0  0  0  0
 16 56  1  0  0  0  0
 16 57  1  0  0  0  0
 17 16  1  0  0  0  0
 17 18  1  0  0  0  0
 17 58  1  1  0  0  0
 18 59  1  0  0  0  0
 19 17  1  0  0  0  0
 19 20  1  0  0  0  0
 19 60  1  6  0  0  0
 20 21  1  0  0  0  0
 20 61  1  0  0  0  0
 21 22  2  0  0  0  0
 21 23  1  0  0  0  0
 23 24  1  0  0  0  0
 24 25  1  0  0  0  0
 24 31  1  0  0  0  0
 24 62  1  6  0  0  0
 25 26  1  0  0  0  0
 25 63  1  0  0  0  0
 25 64  1  0  0  0  0
 27 26  1  0  0  0  0
 27 28  1  0  0  0  0
 27 65  1  1  0  0  0
 29 28  1  0  0  0  0
 29 66  1  0  0  0  0
 29 67  1  0  0  0  0
 30 29  1  0  0  0  0
 30 39  1  0  0  0  0
 30 40  1  0  0  0  0
 31 27  1  0  0  0  0
 31 30  1  0  0  0  0
 31 68  1  1  0  0  0
 32 19  1  0  0  0  0
 32 69  1  0  0  0  0
 32 70  1  0  0  0  0
 33 34  2  0  0  0  0
 33 38  1  0  0  0  0
 33 71  1  0  0  0  0
 34 35  1  0  0  0  0
 34 72  1  0  0  0  0
 35 36  2  0  0  0  0
 35 73  1  0  0  0  0
 36 37  1  0  0  0  0
 36 74  1  0  0  0  0
 37 38  2  0  0  0  0
 37 75  1  0  0  0  0
 38 32  1  0  0  0  0
M  END
