4k1e_ligand
 OpenBabel08222323333D

211217  0  0  1  0  0  0  0  0999 V2000
   13.3290    3.2380   -4.3650 N   0  0  0  0  0  0  0  0  0  0  0  0
   13.7390    1.8500   -4.2730 C   0  0  0  0  0  0  0  0  0  0  0  0
   12.5740    0.8780   -4.3020 C   0  0  0  0  0  0  0  0  0  0  0  0
   12.7700   -0.3310   -4.1690 O   0  0  0  0  0  0  0  0  0  0  0  0
   11.3590    1.3960   -4.4710 N   0  0  0  0  0  0  0  0  0  0  0  0
   10.1820    0.5410   -4.5820 C   0  0  2  0  0  0  0  0  0  0  0  0
    9.9190    0.2600   -6.0560 C   0  0  0  0  0  0  0  0  0  0  0  0
   10.0090    1.1690   -6.8890 O   0  0  0  0  0  0  0  0  0  0  0  0
    8.9470    1.2140   -3.9720 C   0  0  0  0  0  0  0  0  0  0  0  0
    9.0380    1.4510   -2.4860 C   0  0  0  0  0  0  0  0  0  0  0  0
   10.0640    0.8970   -1.7310 C   0  0  0  0  0  0  0  0  0  0  0  0
    8.0810    2.2160   -1.8410 C   0  0  0  0  0  0  0  0  0  0  0  0
   10.1420    1.1200   -0.3670 C   0  0  0  0  0  0  0  0  0  0  0  0
    8.1520    2.4400   -0.4750 C   0  0  0  0  0  0  0  0  0  0  0  0
    9.1830    1.8940    0.2610 C   0  0  0  0  0  0  0  0  0  0  0  0
    9.6040   -0.9920   -6.3860 N   0  0  0  0  0  0  0  0  0  0  0  0
    9.2830   -1.3590   -7.7620 C   0  0  2  0  0  0  0  0  0  0  0  0
    8.0110   -2.1690   -7.8160 C   0  0  0  0  0  0  0  0  0  0  0  0
    7.8830   -3.1650   -7.1010 O   0  0  0  0  0  0  0  0  0  0  0  0
   10.3860   -2.2170   -8.3820 C   0  0  0  0  0  0  0  0  0  0  0  0
   11.9390   -1.4040   -8.6730 S   0  0  0  0  0  0  0  0  0  0  0  0
    7.0950   -1.7500   -8.6850 N   0  0  0  0  0  0  0  0  0  0  0  0
    5.9460   -2.5600   -9.0770 C   0  0  2  0  0  0  0  0  0  0  0  0
    6.4390   -3.7120   -9.9540 C   0  0  0  0  0  0  0  0  0  0  0  0
    7.1870   -3.5010  -10.9100 O   0  0  0  0  0  0  0  0  0  0  0  0
    4.9190   -1.7000   -9.8130 C   0  0  0  0  0  0  0  0  0  0  0  0
    4.2480   -0.6700   -8.9090 C   0  0  0  0  0  0  0  0  0  0  0  0
    3.3690    0.2980   -9.6720 C   0  0  0  0  0  0  0  0  0  0  0  0
    3.7570    0.8020  -10.7300 O   0  0  0  0  0  0  0  0  0  0  0  0
    2.1670    0.5500   -9.1510 N   0  0  0  0  0  0  0  0  0  0  0  0
    6.0240   -4.9290   -9.6230 N   0  0  0  0  0  0  0  0  0  0  0  0
    6.7070   -6.1280  -10.1110 C   0  0  2  0  0  0  0  0  0  0  0  0
    6.1960   -6.7080  -11.4460 C   0  0  0  0  0  0  0  0  0  0  0  0
    6.0920   -7.9240  -11.6260 O   0  0  0  0  0  0  0  0  0  0  0  0
    6.7760   -7.1650   -8.9850 C   0  0  0  0  0  0  0  0  0  0  0  0
    7.7970   -6.7660   -7.9320 C   0  0  0  0  0  0  0  0  0  0  0  0
    7.7530   -7.5990   -6.6780 C   0  0  0  0  0  0  0  0  0  0  0  0
    8.9060   -7.2550   -5.8550 N   0  0  0  0  0  0  0  0  0  0  0  0
    9.1970   -7.7980   -4.6800 C   0  0  0  0  0  3  0  0  0  0  0  0
    8.4120   -8.7290   -4.1620 N   0  0  0  0  0  0  0  0  0  0  0  0
   10.2790   -7.4020   -4.0250 N   0  0  0  0  0  0  0  0  0  0  0  0
    5.8540   -5.8220  -12.3750 N   0  0  0  0  0  0  0  0  0  0  0  0
    5.6260   -6.2140  -13.7570 C   0  0  2  0  0  0  0  0  0  0  0  0
    6.9710   -6.5010  -14.4140 C   0  0  0  0  0  0  0  0  0  0  0  0
    8.0210   -6.3110  -13.8030 O   0  0  0  0  0  0  0  0  0  0  0  0
    4.8810   -5.1020  -14.5040 C   0  0  0  0  0  0  0  0  0  0  0  0
    5.5510   -3.8590  -14.3730 O   0  0  0  0  0  0  0  0  0  0  0  0
    6.9540   -6.9740  -15.6530 N   0  0  0  0  0  0  0  0  0  0  0  0
    8.1950   -7.0810  -16.4070 C   0  0  2  0  0  0  0  0  0  0  0  0
    8.0100   -6.4390  -17.7860 C   0  0  0  0  0  0  0  0  0  0  0  0
    7.1610   -6.8650  -18.5670 O   0  0  0  0  0  0  0  0  0  0  0  0
    8.7610   -8.5410  -16.4260 C   0  0  2  0  0  0  0  0  0  0  0  0
   10.2520   -8.5350  -16.7740 C   0  0  0  0  0  0  0  0  0  0  0  0
    7.9120   -9.4780  -17.2990 C   0  0  0  0  0  0  0  0  0  0  0  0
   11.1090   -9.3210  -15.7980 C   0  0  0  0  0  0  0  0  0  0  0  0
    8.7520   -5.3490  -18.0570 N   0  0  0  0  0  0  0  0  0  0  0  0
    9.6870   -4.6700  -17.1500 C   0  0  2  0  0  0  0  0  0  0  0  0
    8.9690   -4.0100  -15.9720 C   0  0  0  0  0  0  0  0  0  0  0  0
    7.7850   -3.6760  -16.0650 O   0  0  0  0  0  0  0  0  0  0  0  0
   10.3390   -3.6130  -18.0470 C   0  0  0  0  0  0  0  0  0  0  0  0
    9.3210   -3.3390  -19.0960 C   0  0  0  0  0  0  0  0  0  0  0  0
    8.6170   -4.6410  -19.3410 C   0  0  0  0  0  0  0  0  0  0  0  0
    9.6710   -3.8660  -14.8430 N   0  0  0  0  0  0  0  0  0  0  0  0
    9.0510   -3.3130  -13.6380 C   0  0  2  0  0  0  0  0  0  0  0  0
    8.9080   -1.8020  -13.7200 C   0  0  0  0  0  0  0  0  0  0  0  0
    9.5190   -1.1620  -14.5780 O   0  0  0  0  0  0  0  0  0  0  0  0
   10.0480   -3.6880  -12.5390 C   0  0  0  0  0  0  0  0  0  0  0  0
   11.3660   -3.7090  -13.2420 C   0  0  0  0  0  0  0  0  0  0  0  0
   11.0750   -4.2510  -14.6180 C   0  0  0  0  0  0  0  0  0  0  0  0
    8.1000   -1.2430  -12.8260 N   0  0  0  0  0  0  0  0  0  0  0  0
    7.9480    0.1990  -12.7310 C   0  0  2  0  0  0  0  0  0  0  0  0
    8.5730    0.6160  -11.4080 C   0  0  0  0  0  0  0  0  0  0  0  0
    8.0390    0.3120  -10.3390 O   0  0  0  0  0  0  0  0  0  0  0  0
    6.4670    0.6120  -12.7800 C   0  0  2  0  0  0  0  0  0  0  0  0
    5.7730   -0.0350  -13.9840 C   0  0  0  0  0  0  0  0  0  0  0  0
    6.3370    2.1270  -12.8120 C   0  0  0  0  0  0  0  0  0  0  0  0
    4.2590    0.0270  -13.9260 C   0  0  0  0  0  0  0  0  0  0  0  0
    9.7170    1.2890  -11.4830 N   0  0  0  0  0  0  0  0  0  0  0  0
   10.4910    1.6030  -10.2890 C   0  0  2  0  0  0  0  0  0  0  0  0
   10.4830    3.0880   -9.9660 C   0  0  0  0  0  0  0  0  0  0  0  0
   10.3340    3.9390  -10.8470 O   0  0  0  0  0  0  0  0  0  0  0  0
   11.9260    1.0810  -10.4210 C   0  0  0  0  0  0  0  0  0  0  0  0
   12.0480   -0.7240  -10.5940 S   0  0  0  0  0  0  0  0  0  0  0  0
   10.6550    3.3890   -8.6860 N   0  0  0  0  0  0  0  0  0  0  0  0
   10.5570    4.7550   -8.1970 C   0  0  2  0  0  0  0  0  0  0  0  0
   11.8010    5.1070   -7.3790 C   0  0  0  0  0  0  0  0  0  0  0  0
   12.4730    4.2090   -6.8650 O   0  0  0  0  0  0  0  0  0  0  0  0
    9.2730    4.8980   -7.3750 C   0  0  0  0  0  0  0  0  0  0  0  0
    8.0260    4.5710   -8.1490 C   0  0  0  0  0  0  0  0  0  0  0  0
    7.5570    3.2700   -8.2140 C   0  0  0  0  0  0  0  0  0  0  0  0
    7.3310    5.5660   -8.8220 C   0  0  0  0  0  0  0  0  0  0  0  0
    6.4140    2.9630   -8.9330 C   0  0  0  0  0  0  0  0  0  0  0  0
    6.1860    5.2670   -9.5420 C   0  0  0  0  0  0  0  0  0  0  0  0
    5.7250    3.9640   -9.5950 C   0  0  0  0  0  0  0  0  0  0  0  0
   12.1180    6.4120   -7.2640 N   0  0  0  0  0  0  0  0  0  0  0  0
   13.3290    6.9020   -6.5890 C   0  0  2  0  0  0  0  0  0  0  0  0
   13.5620    6.3180   -5.1940 C   0  0  0  0  0  0  0  0  0  0  0  0
   14.7070    6.2830   -4.7370 O   0  0  0  0  0  0  0  0  0  0  0  0
   13.0750    8.4080   -6.4790 C   0  0  0  0  0  0  0  0  0  0  0  0
   12.2170    8.7200   -7.6420 C   0  0  0  0  0  0  0  0  0  0  0  0
   11.3310    7.5200   -7.8370 C   0  0  0  0  0  0  0  0  0  0  0  0
   12.5000    5.8720   -4.5290 N   0  0  0  0  0  0  0  0  0  0  0  0
   12.6240    5.3160   -3.1810 C   0  0  2  0  0  0  0  0  0  0  0  0
   13.0160    3.8400   -3.1830 C   0  0  0  0  0  0  0  0  0  0  0  0
   13.2180    3.2410   -2.1260 O   0  0  0  0  0  0  0  0  0  0  0  0
   11.3310    5.5190   -2.3810 C   0  0  0  0  0  0  0  0  0  0  0  0
   10.1010    4.9890   -3.1010 C   0  0  0  0  0  0  0  0  0  0  0  0
   10.2500    4.1900   -4.0510 O   0  5  0  0  0  0  0  0  0  0  0  0
    8.9780    5.3710   -2.7090 O   0  0  0  0  0  0  0  0  0  0  0  0
   13.2792    3.7218   -5.2387 H   0  0  0  0  0  0  0  0  0  0  0  0
   14.2877    1.7095   -3.3300 H   0  0  0  0  0  0  0  0  0  0  0  0
   14.4029    1.6249   -5.1207 H   0  0  0  0  0  0  0  0  0  0  0  0
   11.2513    2.3888   -4.5228 H   0  0  0  0  0  0  0  0  0  0  0  0
   10.3727   -0.4054   -4.0547 H   0  0  0  0  0  0  0  0  0  0  0  0
    8.0746    0.5725   -4.1654 H   0  0  0  0  0  0  0  0  0  0  0  0
    8.8046    2.1858   -4.4674 H   0  0  0  0  0  0  0  0  0  0  0  0
   10.8133    0.2821   -2.2162 H   0  0  0  0  0  0  0  0  0  0  0  0
    7.2656    2.6453   -2.4118 H   0  0  0  0  0  0  0  0  0  0  0  0
   10.9534    0.6887    0.2080 H   0  0  0  0  0  0  0  0  0  0  0  0
    7.3972    3.0444    0.0150 H   0  0  0  0  0  0  0  0  0  0  0  0
    9.2415    2.0711    1.3288 H   0  0  0  0  0  0  0  0  0  0  0  0
    9.5871   -1.6955   -5.6755 H   0  0  0  0  0  0  0  0  0  0  0  0
    9.1594   -0.4393   -8.3526 H   0  0  0  0  0  0  0  0  0  0  0  0
   10.0170   -2.5921   -9.3480 H   0  0  0  0  0  0  0  0  0  0  0  0
   10.5721   -3.0648   -7.7063 H   0  0  0  0  0  0  0  0  0  0  0  0
    7.1982   -0.8403   -9.0872 H   0  0  0  0  0  0  0  0  0  0  0  0
    5.4731   -2.9756   -8.1750 H   0  0  0  0  0  0  0  0  0  0  0  0
    4.1433   -2.3594  -10.2294 H   0  0  0  0  0  0  0  0  0  0  0  0
    5.4277   -1.1697  -10.6316 H   0  0  0  0  0  0  0  0  0  0  0  0
    5.0297   -0.0982   -8.3874 H   0  0  0  0  0  0  0  0  0  0  0  0
    3.6281   -1.2008   -8.1715 H   0  0  0  0  0  0  0  0  0  0  0  0
    1.5444    1.1818   -9.6128 H   0  0  0  0  0  0  0  0  0  0  0  0
    1.8886    0.1071   -8.2987 H   0  0  0  0  0  0  0  0  0  0  0  0
    5.2271   -5.0286   -9.0271 H   0  0  0  0  0  0  0  0  0  0  0  0
    7.7437   -5.8204  -10.3125 H   0  0  0  0  0  0  0  0  0  0  0  0
    7.0613   -8.1384   -9.4106 H   0  0  0  0  0  0  0  0  0  0  0  0
    5.7863   -7.2475   -8.5120 H   0  0  0  0  0  0  0  0  0  0  0  0
    7.6144   -5.7172   -7.6552 H   0  0  0  0  0  0  0  0  0  0  0  0
    8.8006   -6.8596   -8.3725 H   0  0  0  0  0  0  0  0  0  0  0  0
    7.7892   -8.6667   -6.9400 H   0  0  0  0  0  0  0  0  0  0  0  0
    6.8259   -7.3885   -6.1247 H   0  0  0  0  0  0  0  0  0  0  0  0
    9.5460   -6.5325   -6.2145 H   0  0  0  0  0  0  0  0  0  0  0  0
    8.6423   -9.1475   -3.2494 H   0  0  0  0  0  0  0  0  0  0  0  0
    7.5707   -9.0351   -4.6714 H   0  0  0  0  0  0  0  0  0  0  0  0
   10.8892   -6.6773   -4.4291 H   0  0  0  0  0  0  0  0  0  0  0  0
   10.5096   -7.8189   -3.1118 H   0  0  0  0  0  0  0  0  0  0  0  0
    5.7507   -4.8612  -12.1176 H   0  0  0  0  0  0  0  0  0  0  0  0
    5.0134   -7.1274  -13.7780 H   0  0  0  0  0  0  0  0  0  0  0  0
    3.8665   -5.0083  -14.0893 H   0  0  0  0  0  0  0  0  0  0  0  0
    4.8184   -5.3653  -15.5702 H   0  0  0  0  0  0  0  0  0  0  0  0
    6.4268   -3.9331  -14.7334 H   0  0  0  0  0  0  0  0  0  0  0  0
    6.0897   -7.2569  -16.0689 H   0  0  0  0  0  0  0  0  0  0  0  0
    8.9452   -6.4744  -15.8786 H   0  0  0  0  0  0  0  0  0  0  0  0
    8.6831   -8.9267  -15.3988 H   0  0  0  0  0  0  0  0  0  0  0  0
   10.6026   -7.4924  -16.7825 H   0  0  0  0  0  0  0  0  0  0  0  0
   10.3767   -8.9720  -17.7757 H   0  0  0  0  0  0  0  0  0  0  0  0
    6.8600   -9.4206  -16.9828 H   0  0  0  0  0  0  0  0  0  0  0  0
    8.2728  -10.5110  -17.1865 H   0  0  0  0  0  0  0  0  0  0  0  0
    7.9953   -9.1731  -18.3526 H   0  0  0  0  0  0  0  0  0  0  0  0
   12.1620   -9.2709  -16.1120 H   0  0  0  0  0  0  0  0  0  0  0  0
   10.7801  -10.3706  -15.7840 H   0  0  0  0  0  0  0  0  0  0  0  0
   11.0059   -8.8910  -14.7908 H   0  0  0  0  0  0  0  0  0  0  0  0
   10.4373   -5.3768  -16.7660 H   0  0  0  0  0  0  0  0  0  0  0  0
   11.2654   -4.0010  -18.4956 H   0  0  0  0  0  0  0  0  0  0  0  0
   10.5629   -2.7009  -17.4743 H   0  0  0  0  0  0  0  0  0  0  0  0
    9.8075   -2.9885  -20.0182 H   0  0  0  0  0  0  0  0  0  0  0  0
    8.6071   -2.5787  -18.7462 H   0  0  0  0  0  0  0  0  0  0  0  0
    7.5584   -4.4753  -19.5897 H   0  0  0  0  0  0  0  0  0  0  0  0
    9.1008   -5.2032  -20.1533 H   0  0  0  0  0  0  0  0  0  0  0  0
    8.0657   -3.7675  -13.4573 H   0  0  0  0  0  0  0  0  0  0  0  0
    9.8131   -4.6768  -12.1182 H   0  0  0  0  0  0  0  0  0  0  0  0
   10.0451   -2.9372  -11.7351 H   0  0  0  0  0  0  0  0  0  0  0  0
   12.0746   -4.3628  -12.7125 H   0  0  0  0  0  0  0  0  0  0  0  0
   11.7834   -2.6934  -13.3084 H   0  0  0  0  0  0  0  0  0  0  0  0
   11.7347   -3.7930  -15.3697 H   0  0  0  0  0  0  0  0  0  0  0  0
   11.1930   -5.3443  -14.6440 H   0  0  0  0  0  0  0  0  0  0  0  0
    7.5831   -1.8295  -12.2024 H   0  0  0  0  0  0  0  0  0  0  0  0
    8.4799    0.6824  -13.5637 H   0  0  0  0  0  0  0  0  0  0  0  0
    5.9764    0.2468  -11.8657 H   0  0  0  0  0  0  0  0  0  0  0  0
    6.0749   -1.0917  -14.0313 H   0  0  0  0  0  0  0  0  0  0  0  0
    6.1063    0.4828  -14.8955 H   0  0  0  0  0  0  0  0  0  0  0  0
    6.8448    2.5571  -11.9361 H   0  0  0  0  0  0  0  0  0  0  0  0
    5.2727    2.4042  -12.7915 H   0  0  0  0  0  0  0  0  0  0  0  0
    6.7995    2.5154  -13.7313 H   0  0  0  0  0  0  0  0  0  0  0  0
    3.8378   -0.4555  -14.8203 H   0  0  0  0  0  0  0  0  0  0  0  0
    3.9361    1.0779  -13.8899 H   0  0  0  0  0  0  0  0  0  0  0  0
    3.9048   -0.4965  -13.0258 H   0  0  0  0  0  0  0  0  0  0  0  0
   10.0531    1.5857  -12.3768 H   0  0  0  0  0  0  0  0  0  0  0  0
   10.0201    1.0798   -9.4437 H   0  0  0  0  0  0  0  0  0  0  0  0
   12.4861    1.3802   -9.5228 H   0  0  0  0  0  0  0  0  0  0  0  0
   12.3816    1.5443  -11.3086 H   0  0  0  0  0  0  0  0  0  0  0  0
   10.8581    2.6550   -8.0379 H   0  0  0  0  0  0  0  0  0  0  0  0
   10.5013    5.4396   -9.0562 H   0  0  0  0  0  0  0  0  0  0  0  0
    9.2004    5.9367   -7.0205 H   0  0  0  0  0  0  0  0  0  0  0  0
    9.3349    4.2193   -6.5116 H   0  0  0  0  0  0  0  0  0  0  0  0
    8.0911    2.4819   -7.6956 H   0  0  0  0  0  0  0  0  0  0  0  0
    7.6882    6.5887   -8.7838 H   0  0  0  0  0  0  0  0  0  0  0  0
    6.0594    1.9396   -8.9772 H   0  0  0  0  0  0  0  0  0  0  0  0
    5.6519    6.0532  -10.0633 H   0  0  0  0  0  0  0  0  0  0  0  0
    4.8265    3.7276  -10.1535 H   0  0  0  0  0  0  0  0  0  0  0  0
   14.2137    6.6958   -7.2093 H   0  0  0  0  0  0  0  0  0  0  0  0
   14.0206    8.9675   -6.5313 H   0  0  0  0  0  0  0  0  0  0  0  0
   12.5583    8.6483   -5.5381 H   0  0  0  0  0  0  0  0  0  0  0  0
   12.8333    8.8896   -8.5372 H   0  0  0  0  0  0  0  0  0  0  0  0
   11.6098    9.6147   -7.4400 H   0  0  0  0  0  0  0  0  0  0  0  0
   10.3785    7.6437   -7.3009 H   0  0  0  0  0  0  0  0  0  0  0  0
   11.1311    7.3487   -8.9050 H   0  0  0  0  0  0  0  0  0  0  0  0
   11.5983    5.9175   -4.9590 H   0  0  0  0  0  0  0  0  0  0  0  0
   13.4259    5.8699   -2.6710 H   0  0  0  0  0  0  0  0  0  0  0  0
   11.1953    6.5955   -2.2002 H   0  0  0  0  0  0  0  0  0  0  0  0
   11.4275    4.9949   -1.4187 H   0  0  0  0  0  0  0  0  0  0  0  0
  1  2  1  0  0  0  0
  1104  1  0  0  0  0
  1110  1  0  0  0  0
  2  3  1  0  0  0  0
  2111  1  0  0  0  0
  2112  1  0  0  0  0
  3  4  2  0  0  0  0
  3  5  1  0  0  0  0
  5  6  1  0  0  0  0
  5113  1  0  0  0  0
  6  7  1  0  0  0  0
  6  9  1  0  0  0  0
  6114  1  1  0  0  0
  7  8  2  0  0  0  0
  7 16  1  0  0  0  0
  9 10  1  0  0  0  0
  9115  1  0  0  0  0
  9116  1  0  0  0  0
 10 11  2  0  0  0  0
 10 12  1  0  0  0  0
 11 13  1  0  0  0  0
 11117  1  0  0  0  0
 12 14  2  0  0  0  0
 12118  1  0  0  0  0
 13 15  2  0  0  0  0
 13119  1  0  0  0  0
 14 15  1  0  0  0  0
 14120  1  0  0  0  0
 15121  1  0  0  0  0
 16 17  1  0  0  0  0
 16122  1  0  0  0  0
 17 18  1  0  0  0  0
 17 20  1  0  0  0  0
 17123  1  6  0  0  0
 18 19  2  0  0  0  0
 18 22  1  0  0  0  0
 20 21  1  0  0  0  0
 20124  1  0  0  0  0
 20125  1  0  0  0  0
 21 83  1  0  0  0  0
 22 23  1  0  0  0  0
 22126  1  0  0  0  0
 23 24  1  0  0  0  0
 23 26  1  0  0  0  0
 23127  1  1  0  0  0
 24 25  2  0  0  0  0
 24 31  1  0  0  0  0
 26 27  1  0  0  0  0
 26128  1  0  0  0  0
 26129  1  0  0  0  0
 27 28  1  0  0  0  0
 27130  1  0  0  0  0
 27131  1  0  0  0  0
 28 29  2  0  0  0  0
 28 30  1  0  0  0  0
 30132  1  0  0  0  0
 30133  1  0  0  0  0
 31 32  1  0  0  0  0
 31134  1  0  0  0  0
 32 33  1  0  0  0  0
 32 35  1  0  0  0  0
 32135  1  6  0  0  0
 33 34  2  0  0  0  0
 33 42  1  0  0  0  0
 35 36  1  0  0  0  0
 35136  1  0  0  0  0
 35137  1  0  0  0  0
 36 37  1  0  0  0  0
 36138  1  0  0  0  0
 36139  1  0  0  0  0
 37 38  1  0  0  0  0
 37140  1  0  0  0  0
 37141  1  0  0  0  0
 38 39  1  0  0  0  0
 38142  1  0  0  0  0
 39 40  1  0  0  0  0
 39 41  1  0  0  0  0
 40143  1  0  0  0  0
 40144  1  0  0  0  0
 41145  1  0  0  0  0
 41146  1  0  0  0  0
 42 43  1  0  0  0  0
 42147  1  0  0  0  0
 43 44  1  0  0  0  0
 43 46  1  0  0  0  0
 43148  1  6  0  0  0
 44 45  2  0  0  0  0
 44 48  1  0  0  0  0
 46 47  1  0  0  0  0
 46149  1  0  0  0  0
 46150  1  0  0  0  0
 47151  1  0  0  0  0
 48 49  1  0  0  0  0
 48152  1  0  0  0  0
 49 50  1  0  0  0  0
 49 52  1  0  0  0  0
 49153  1  1  0  0  0
 50 51  2  0  0  0  0
 50 56  1  0  0  0  0
 52 53  1  0  0  0  0
 52 54  1  0  0  0  0
 52154  1  1  0  0  0
 53 55  1  0  0  0  0
 53155  1  0  0  0  0
 53156  1  0  0  0  0
 54157  1  0  0  0  0
 54158  1  0  0  0  0
 54159  1  0  0  0  0
 55160  1  0  0  0  0
 55161  1  0  0  0  0
 55162  1  0  0  0  0
 56 57  1  0  0  0  0
 56 62  1  0  0  0  0
 57 58  1  0  0  0  0
 57 60  1  0  0  0  0
 57163  1  1  0  0  0
 58 59  2  0  0  0  0
 58 63  1  0  0  0  0
 60 61  1  0  0  0  0
 60164  1  0  0  0  0
 60165  1  0  0  0  0
 61 62  1  0  0  0  0
 61166  1  0  0  0  0
 61167  1  0  0  0  0
 62168  1  0  0  0  0
 62169  1  0  0  0  0
 63 64  1  0  0  0  0
 63 69  1  0  0  0  0
 64 65  1  0  0  0  0
 64 67  1  0  0  0  0
 64170  1  1  0  0  0
 65 66  2  0  0  0  0
 65 70  1  0  0  0  0
 67 68  1  0  0  0  0
 67171  1  0  0  0  0
 67172  1  0  0  0  0
 68 69  1  0  0  0  0
 68173  1  0  0  0  0
 68174  1  0  0  0  0
 69175  1  0  0  0  0
 69176  1  0  0  0  0
 70 71  1  0  0  0  0
 70177  1  0  0  0  0
 71 72  1  0  0  0  0
 71 74  1  0  0  0  0
 71178  1  6  0  0  0
 72 73  2  0  0  0  0
 72 78  1  0  0  0  0
 74 75  1  0  0  0  0
 74 76  1  0  0  0  0
 74179  1  1  0  0  0
 75 77  1  0  0  0  0
 75180  1  0  0  0  0
 75181  1  0  0  0  0
 76182  1  0  0  0  0
 76183  1  0  0  0  0
 76184  1  0  0  0  0
 77185  1  0  0  0  0
 77186  1  0  0  0  0
 77187  1  0  0  0  0
 78 79  1  0  0  0  0
 78188  1  0  0  0  0
 79 80  1  0  0  0  0
 79 82  1  0  0  0  0
 79189  1  1  0  0  0
 80 81  2  0  0  0  0
 80 84  1  0  0  0  0
 82 83  1  0  0  0  0
 82190  1  0  0  0  0
 82191  1  0  0  0  0
 84 85  1  0  0  0  0
 84192  1  0  0  0  0
 85 86  1  0  0  0  0
 85 88  1  0  0  0  0
 85193  1  6  0  0  0
 86 87  2  0  0  0  0
 86 95  1  0  0  0  0
 88 89  1  0  0  0  0
 88194  1  0  0  0  0
 88195  1  0  0  0  0
 89 90  2  0  0  0  0
 89 91  1  0  0  0  0
 90 92  1  0  0  0  0
 90196  1  0  0  0  0
 91 93  2  0  0  0  0
 91197  1  0  0  0  0
 92 94  2  0  0  0  0
 92198  1  0  0  0  0
 93 94  1  0  0  0  0
 93199  1  0  0  0  0
 94200  1  0  0  0  0
 95 96  1  0  0  0  0
 95101  1  0  0  0  0
 96 97  1  0  0  0  0
 96 99  1  0  0  0  0
 96201  1  6  0  0  0
 97 98  2  0  0  0  0
 97102  1  0  0  0  0
 99100  1  0  0  0  0
 99202  1  0  0  0  0
 99203  1  0  0  0  0
100101  1  0  0  0  0
100204  1  0  0  0  0
100205  1  0  0  0  0
101206  1  0  0  0  0
101207  1  0  0  0  0
102103  1  0  0  0  0
102208  1  0  0  0  0
103104  1  0  0  0  0
103106  1  0  0  0  0
103209  1  1  0  0  0
104105  2  0  0  0  0
106107  1  0  0  0  0
106210  1  0  0  0  0
106211  1  0  0  0  0
107108  1  0  0  0  0
107109  2  0  0  0  0
M  CHG  1 108  -1
M  END
