4o62_ligand
 OpenBabel08222323333D

113112  0  0  1  0  0  0  0  0999 V2000
   16.1280    3.5320   21.5440 N   0  3  0  0  0  0  0  0  0  0  0  0
   17.0760    4.4370   22.2940 C   0  0  2  0  0  0  0  0  0  0  0  0
   18.5180    4.0660   21.9960 C   0  0  0  0  0  0  0  0  0  0  0  0
   18.8830    2.8900   21.9910 O   0  0  0  0  0  0  0  0  0  0  0  0
   16.8270    4.3880   23.7940 C   0  0  0  0  0  0  0  0  0  0  0  0
   19.3320    5.0810   21.7390 N   0  0  0  0  0  0  0  0  0  0  0  0
   20.7530    4.9220   21.4950 C   0  0  2  0  0  0  0  0  0  0  0  0
   21.4520    5.2780   22.7910 C   0  0  0  0  0  0  0  0  0  0  0  0
   21.2110    6.3760   23.3420 O   0  0  0  0  0  0  0  0  0  0  0  0
   21.1650    5.8450   20.3540 C   0  0  0  0  0  0  0  0  0  0  0  0
   22.5260    5.5650   19.7770 C   0  0  0  0  0  0  0  0  0  0  0  0
   23.0190    6.7710   18.9950 C   0  0  0  0  0  0  0  0  0  0  0  0
   24.4400    6.6460   18.6710 N   0  0  0  0  0  0  0  0  0  0  0  0
   25.1960    7.6150   18.1450 C   0  0  0  0  0  3  0  0  0  0  0  0
   24.6850    8.8160   17.8620 N   0  0  0  0  0  0  0  0  0  0  0  0
   26.4810    7.3780   17.8950 N   0  0  0  0  0  0  0  0  0  0  0  0
   22.2750    4.3500   23.3130 N   0  0  0  0  0  0  0  0  0  0  0  0
   22.8560    4.4980   24.6530 C   0  0  2  0  0  0  0  0  0  0  0  0
   24.3690    4.2010   24.6620 C   0  0  0  0  0  0  0  0  0  0  0  0
   24.8770    3.5810   23.7280 O   0  0  0  0  0  0  0  0  0  0  0  0
   22.1660    3.5760   25.6740 C   0  0  2  0  0  0  0  0  0  0  0  0
   22.3740    2.2120   25.2820 O   0  0  0  0  0  0  0  0  0  0  0  0
   20.6670    3.8630   25.7490 C   0  0  0  0  0  0  0  0  0  0  0  0
   25.0690    4.6640   25.7020 N   0  0  0  0  0  0  0  0  0  0  0  0
   26.4930    4.3640   25.8970 C   0  0  1  0  0  0  0  0  0  0  0  0
   27.4830    5.5330   25.6480 C   0  0  0  0  0  0  0  0  0  0  0  0
   27.5520    6.1270   24.2360 C   0  0  0  0  0  0  0  0  0  0  0  0
   28.6180    7.2420   24.1510 C   0  0  0  0  0  0  0  0  0  0  0  0
   28.2180    8.5440   24.9010 C   0  0  0  0  0  0  0  0  0  0  0  0
   29.1260    9.7200   24.7100 N   0  3  0  0  0  0  0  0  0  0  0  0
   26.6590    4.0220   27.3460 C   0  0  0  0  0  0  0  0  0  0  0  0
   26.2170    4.7830   28.2280 O   0  0  0  0  0  0  0  0  0  0  0  0
   30.5430    9.3650   24.9080 C   0  0  0  0  0  0  0  0  0  0  0  0
   28.7760   10.7490   25.7050 C   0  0  0  0  0  0  0  0  0  0  0  0
   28.9670   10.2960   23.3610 C   0  0  0  0  0  0  0  0  0  0  0  0
   27.3170    2.8850   27.6290 N   0  0  0  0  0  0  0  0  0  0  0  0
   27.6270    2.4680   29.0400 C   0  0  2  0  0  0  0  0  0  0  0  0
   28.6660    3.4360   29.6410 C   0  0  0  0  0  0  0  0  0  0  0  0
   29.4900    3.9650   28.9070 O   0  0  0  0  0  0  0  0  0  0  0  0
   28.1530    1.0050   29.0970 C   0  0  0  0  0  0  0  0  0  0  0  0
   27.2140   -0.0550   28.5010 C   0  0  0  0  0  0  0  0  0  0  0  0
   25.8000   -0.0390   29.1020 C   0  0  0  0  0  0  0  0  0  0  0  0
   25.6190   -0.0750   30.3480 O   0  0  0  0  0  0  0  0  0  0  0  0
   24.7750    0.0030   28.2140 N   0  0  0  0  0  0  0  0  0  0  0  0
   28.6240    3.6960   30.9500 N   0  0  0  0  0  0  0  0  0  0  0  0
   29.6740    4.5430   31.5730 C   0  0  2  0  0  0  0  0  0  0  0  0
   30.8390    3.6820   32.0900 C   0  0  0  0  0  0  0  0  0  0  0  0
   31.9820    4.1500   32.1760 O   0  5  0  0  0  0  0  0  0  0  0  0
   29.1430    5.4300   32.7300 C   0  0  2  0  0  0  0  0  0  0  0  0
   28.3370    4.6470   33.6250 O   0  0  0  0  0  0  0  0  0  0  0  0
   28.3330    6.5980   32.1940 C   0  0  0  0  0  0  0  0  0  0  0  0
   30.6278    2.4872   32.4297 O   0  0  0  0  0  0  0  0  0  0  0  0
   15.1773    3.7931   21.7541 H   0  0  0  0  0  0  0  0  0  0  0  0
   16.2836    2.5763   21.8240 H   0  0  0  0  0  0  0  0  0  0  0  0
   16.2901    3.6225   20.5533 H   0  0  0  0  0  0  0  0  0  0  0  0
   16.9055    5.4682   21.9513 H   0  0  0  0  0  0  0  0  0  0  0  0
   17.5342    5.0578   24.3051 H   0  0  0  0  0  0  0  0  0  0  0  0
   16.9696    3.3591   24.1560 H   0  0  0  0  0  0  0  0  0  0  0  0
   15.7972    4.7118   24.0055 H   0  0  0  0  0  0  0  0  0  0  0  0
   18.9464    6.0033   21.7120 H   0  0  0  0  0  0  0  0  0  0  0  0
   20.9816    3.8813   21.2217 H   0  0  0  0  0  0  0  0  0  0  0  0
   21.1589    6.8785   20.7305 H   0  0  0  0  0  0  0  0  0  0  0  0
   20.4239    5.7441   19.5474 H   0  0  0  0  0  0  0  0  0  0  0  0
   22.4649    4.6960   19.1054 H   0  0  0  0  0  0  0  0  0  0  0  0
   23.2301    5.3483   20.5939 H   0  0  0  0  0  0  0  0  0  0  0  0
   22.8672    7.6773   19.5996 H   0  0  0  0  0  0  0  0  0  0  0  0
   22.4438    6.8527   18.0609 H   0  0  0  0  0  0  0  0  0  0  0  0
   24.8932    5.7412   18.8630 H   0  0  0  0  0  0  0  0  0  0  0  0
   25.2852    9.5486   17.4570 H   0  0  0  0  0  0  0  0  0  0  0  0
   23.6907    9.0096   18.0487 H   0  0  0  0  0  0  0  0  0  0  0  0
   26.8857    6.4554   18.1093 H   0  0  0  0  0  0  0  0  0  0  0  0
   27.0712    8.1171   17.4872 H   0  0  0  0  0  0  0  0  0  0  0  0
   22.4968    3.5377   22.7736 H   0  0  0  0  0  0  0  0  0  0  0  0
   22.7064    5.5406   24.9702 H   0  0  0  0  0  0  0  0  0  0  0  0
   22.6110    3.7423   26.6661 H   0  0  0  0  0  0  0  0  0  0  0  0
   22.0026    2.0716   24.4190 H   0  0  0  0  0  0  0  0  0  0  0  0
   20.2014    3.1908   26.4848 H   0  0  0  0  0  0  0  0  0  0  0  0
   20.2120    3.6971   24.7614 H   0  0  0  0  0  0  0  0  0  0  0  0
   20.5085    4.9076   26.0549 H   0  0  0  0  0  0  0  0  0  0  0  0
   24.6037    5.2386   26.3753 H   0  0  0  0  0  0  0  0  0  0  0  0
   26.7685    3.5150   25.2541 H   0  0  0  0  0  0  0  0  0  0  0  0
   28.4899    5.1686   25.8995 H   0  0  0  0  0  0  0  0  0  0  0  0
   27.2063    6.3480   26.3329 H   0  0  0  0  0  0  0  0  0  0  0  0
   26.5700    6.5488   23.9757 H   0  0  0  0  0  0  0  0  0  0  0  0
   27.8092    5.3296   23.5233 H   0  0  0  0  0  0  0  0  0  0  0  0
   28.7809    7.4873   23.0912 H   0  0  0  0  0  0  0  0  0  0  0  0
   29.5536    6.8627   24.5877 H   0  0  0  0  0  0  0  0  0  0  0  0
   28.1854    8.3158   25.9766 H   0  0  0  0  0  0  0  0  0  0  0  0
   27.2144    8.8350   24.5573 H   0  0  0  0  0  0  0  0  0  0  0  0
   31.1689   10.2570   24.7579 H   0  0  0  0  0  0  0  0  0  0  0  0
   30.8312    8.5888   24.1838 H   0  0  0  0  0  0  0  0  0  0  0  0
   30.6863    8.9843   25.9300 H   0  0  0  0  0  0  0  0  0  0  0  0
   27.7210   11.0347   25.5813 H   0  0  0  0  0  0  0  0  0  0  0  0
   29.4147   11.6326   25.5589 H   0  0  0  0  0  0  0  0  0  0  0  0
   28.9309   10.3478   26.7174 H   0  0  0  0  0  0  0  0  0  0  0  0
   29.2251    9.5386   22.6062 H   0  0  0  0  0  0  0  0  0  0  0  0
   29.6336   11.1642   23.2521 H   0  0  0  0  0  0  0  0  0  0  0  0
   27.9238   10.6146   23.2189 H   0  0  0  0  0  0  0  0  0  0  0  0
   27.6104    2.2963   26.8757 H   0  0  0  0  0  0  0  0  0  0  0  0
   26.7030    2.5272   29.6338 H   0  0  0  0  0  0  0  0  0  0  0  0
   28.3290    0.7482   30.1520 H   0  0  0  0  0  0  0  0  0  0  0  0
   29.1042    0.9643   28.5461 H   0  0  0  0  0  0  0  0  0  0  0  0
   27.6546   -1.0473   28.6775 H   0  0  0  0  0  0  0  0  0  0  0  0
   27.1327    0.1229   27.4185 H   0  0  0  0  0  0  0  0  0  0  0  0
   23.8301    0.0154   28.5412 H   0  0  0  0  0  0  0  0  0  0  0  0
   24.9644    0.0216   27.2323 H   0  0  0  0  0  0  0  0  0  0  0  0
   27.8861    3.3208   31.5110 H   0  0  0  0  0  0  0  0  0  0  0  0
   30.0625    5.2118   30.7908 H   0  0  0  0  0  0  0  0  0  0  0  0
   30.0038    5.8280   33.2873 H   0  0  0  0  0  0  0  0  0  0  0  0
   27.6004    4.2820   33.1488 H   0  0  0  0  0  0  0  0  0  0  0  0
   27.9699    7.2085   33.0339 H   0  0  0  0  0  0  0  0  0  0  0  0
   27.4754    6.2169   31.6201 H   0  0  0  0  0  0  0  0  0  0  0  0
   28.9671    7.2145   31.5399 H   0  0  0  0  0  0  0  0  0  0  0  0
  1  2  1  0  0  0  0
  1 53  1  0  0  0  0
  1 54  1  0  0  0  0
  1 55  1  0  0  0  0
  2  3  1  0  0  0  0
  2  5  1  0  0  0  0
  2 56  1  6  0  0  0
  3  4  2  0  0  0  0
  3  6  1  0  0  0  0
  5 57  1  0  0  0  0
  5 58  1  0  0  0  0
  5 59  1  0  0  0  0
  6  7  1  0  0  0  0
  6 60  1  0  0  0  0
  7  8  1  0  0  0  0
  7 10  1  0  0  0  0
  7 61  1  6  0  0  0
  8  9  2  0  0  0  0
  8 17  1  0  0  0  0
 10 11  1  0  0  0  0
 10 62  1  0  0  0  0
 10 63  1  0  0  0  0
 11 12  1  0  0  0  0
 11 64  1  0  0  0  0
 11 65  1  0  0  0  0
 12 13  1  0  0  0  0
 12 66  1  0  0  0  0
 12 67  1  0  0  0  0
 13 14  1  0  0  0  0
 13 68  1  0  0  0  0
 14 15  1  0  0  0  0
 14 16  1  0  0  0  0
 15 69  1  0  0  0  0
 15 70  1  0  0  0  0
 16 71  1  0  0  0  0
 16 72  1  0  0  0  0
 17 18  1  0  0  0  0
 17 73  1  0  0  0  0
 18 19  1  0  0  0  0
 18 21  1  0  0  0  0
 18 74  1  1  0  0  0
 19 20  2  0  0  0  0
 19 24  1  0  0  0  0
 21 22  1  0  0  0  0
 21 23  1  0  0  0  0
 21 75  1  1  0  0  0
 22 76  1  0  0  0  0
 23 77  1  0  0  0  0
 23 78  1  0  0  0  0
 23 79  1  0  0  0  0
 24 25  1  0  0  0  0
 24 80  1  0  0  0  0
 25 26  1  0  0  0  0
 25 31  1  0  0  0  0
 25 81  1  6  0  0  0
 26 27  1  0  0  0  0
 26 82  1  0  0  0  0
 26 83  1  0  0  0  0
 27 28  1  0  0  0  0
 27 84  1  0  0  0  0
 27 85  1  0  0  0  0
 28 29  1  0  0  0  0
 28 86  1  0  0  0  0
 28 87  1  0  0  0  0
 29 30  1  0  0  0  0
 29 88  1  0  0  0  0
 29 89  1  0  0  0  0
 30 33  1  0  0  0  0
 30 34  1  0  0  0  0
 30 35  1  0  0  0  0
 31 32  2  0  0  0  0
 31 36  1  0  0  0  0
 33 90  1  0  0  0  0
 33 91  1  0  0  0  0
 33 92  1  0  0  0  0
 34 93  1  0  0  0  0
 34 94  1  0  0  0  0
 34 95  1  0  0  0  0
 35 96  1  0  0  0  0
 35 97  1  0  0  0  0
 35 98  1  0  0  0  0
 36 37  1  0  0  0  0
 36 99  1  0  0  0  0
 37 38  1  0  0  0  0
 37 40  1  0  0  0  0
 37100  1  1  0  0  0
 38 39  2  0  0  0  0
 38 45  1  0  0  0  0
 40 41  1  0  0  0  0
 40101  1  0  0  0  0
 40102  1  0  0  0  0
 41 42  1  0  0  0  0
 41103  1  0  0  0  0
 41104  1  0  0  0  0
 42 43  2  0  0  0  0
 42 44  1  0  0  0  0
 44105  1  0  0  0  0
 44106  1  0  0  0  0
 45 46  1  0  0  0  0
 45107  1  0  0  0  0
 46 47  1  0  0  0  0
 46 49  1  0  0  0  0
 46108  1  6  0  0  0
 47 48  1  0  0  0  0
 47 52  2  0  0  0  0
 49 50  1  0  0  0  0
 49 51  1  0  0  0  0
 49109  1  1  0  0  0
 50110  1  0  0  0  0
 51111  1  0  0  0  0
 51112  1  0  0  0  0
 51113  1  0  0  0  0
M  CHG  3   1   1  30   1  48  -1
M  END
