4pli_ligand
 OpenBabel08222323333D

 34 33  0  0  1  0  0  0  0  0999 V2000
   -1.7300    7.6350  -16.9510 N   0  3  0  0  0  0  0  0  0  0  0  0
   -0.9720    6.9730  -15.9060 C   0  0  1  0  0  0  0  0  0  0  0  0
    0.4870    6.8230  -16.3300 C   0  0  0  0  0  0  0  0  0  0  0  0
    0.6620    5.6060  -17.2320 C   0  0  0  0  0  0  0  0  0  0  0  0
    2.0660    5.0160  -17.1260 C   0  0  0  0  0  0  0  0  0  0  0  0
    3.0690    5.8210  -17.9430 C   0  0  0  0  0  0  0  0  0  0  0  0
    4.3270    5.0700  -18.0920 N   0  3  0  0  0  0  0  0  0  0  0  0
   -1.0510    7.7700  -14.6380 C   0  0  0  0  0  0  0  0  0  0  0  0
   -1.3790    7.1760  -13.5880 O   0  5  0  0  0  0  0  0  0  0  0  0
    4.1020    3.8350  -18.8510 C   0  0  0  0  0  0  0  0  0  0  0  0
    4.8750    4.7480  -16.7710 C   0  0  0  0  0  0  0  0  0  0  0  0
    5.2940    5.8780  -18.8310 C   0  0  0  0  0  0  0  0  0  0  0  0
   -0.7850    8.9900  -14.6910 O   0  0  0  0  0  0  0  0  0  0  0  0
   -1.6734    7.0952  -17.8004 H   0  0  0  0  0  0  0  0  0  0  0  0
   -1.3493    8.5545  -17.1112 H   0  0  0  0  0  0  0  0  0  0  0  0
   -2.6940    7.7152  -16.6675 H   0  0  0  0  0  0  0  0  0  0  0  0
   -1.3993    5.9746  -15.7308 H   0  0  0  0  0  0  0  0  0  0  0  0
    1.1132    6.7016  -15.4338 H   0  0  0  0  0  0  0  0  0  0  0  0
    0.7993    7.7254  -16.8760 H   0  0  0  0  0  0  0  0  0  0  0  0
    0.4805    5.9069  -18.2744 H   0  0  0  0  0  0  0  0  0  0  0  0
   -0.0693    4.8383  -16.9393 H   0  0  0  0  0  0  0  0  0  0  0  0
    2.0488    3.9813  -17.4989 H   0  0  0  0  0  0  0  0  0  0  0  0
    2.3777    5.0205  -16.0711 H   0  0  0  0  0  0  0  0  0  0  0  0
    3.2732    6.7729  -17.4311 H   0  0  0  0  0  0  0  0  0  0  0  0
    2.6471    6.0232  -18.9385 H   0  0  0  0  0  0  0  0  0  0  0  0
    5.0513    3.2885  -18.9518 H   0  0  0  0  0  0  0  0  0  0  0  0
    3.7144    4.0839  -19.8499 H   0  0  0  0  0  0  0  0  0  0  0  0
    3.3717    3.2064  -18.3204 H   0  0  0  0  0  0  0  0  0  0  0  0
    5.0416    5.6774  -16.2067 H   0  0  0  0  0  0  0  0  0  0  0  0
    5.8300    4.2152  -16.8901 H   0  0  0  0  0  0  0  0  0  0  0  0
    4.1647    4.1098  -16.2249 H   0  0  0  0  0  0  0  0  0  0  0  0
    4.8861    6.1216  -19.8231 H   0  0  0  0  0  0  0  0  0  0  0  0
    6.2305    5.3130  -18.9483 H   0  0  0  0  0  0  0  0  0  0  0  0
    5.4935    6.8078  -18.2782 H   0  0  0  0  0  0  0  0  0  0  0  0
  1  2  1  0  0  0  0
  1 14  1  0  0  0  0
  1 15  1  0  0  0  0
  1 16  1  0  0  0  0
  2  3  1  0  0  0  0
  2  8  1  0  0  0  0
  2 17  1  1  0  0  0
  3  4  1  0  0  0  0
  3 18  1  0  0  0  0
  3 19  1  0  0  0  0
  4  5  1  0  0  0  0
  4 20  1  0  0  0  0
  4 21  1  0  0  0  0
  5  6  1  0  0  0  0
  5 22  1  0  0  0  0
  5 23  1  0  0  0  0
  6  7  1  0  0  0  0
  6 24  1  0  0  0  0
  6 25  1  0  0  0  0
  7 10  1  0  0  0  0
  7 11  1  0  0  0  0
  7 12  1  0  0  0  0
  8  9  1  0  0  0  0
  8 13  2  0  0  0  0
 10 26  1  0  0  0  0
 10 27  1  0  0  0  0
 10 28  1  0  0  0  0
 11 29  1  0  0  0  0
 11 30  1  0  0  0  0
 11 31  1  0  0  0  0
 12 32  1  0  0  0  0
 12 33  1  0  0  0  0
 12 34  1  0  0  0  0
M  CHG  3   1   1   7   1   9  -1
M  END
