4qmm_ligand
 OpenBabel08222323333D

 52 56  0  0  0  0  0  0  0  0999 V2000
  124.8160    0.1160   77.4390 O   0  0  0  0  0  0  0  0  0  0  0  0
  125.3470    1.1450   76.9660 C   0  0  0  0  0  0  0  0  0  0  0  0
  125.2400    2.3460   77.5790 N   0  0  0  0  0  0  0  0  0  0  0  0
  125.4320    3.5960   76.9280 C   0  0  0  0  0  0  0  0  0  0  0  0
  126.8780    4.1060   76.7920 C   0  0  0  0  0  0  0  0  0  0  0  0
  125.9360    4.7290   77.8330 C   0  0  0  0  0  0  0  0  0  0  0  0
  126.0700    1.1360   75.8250 N   0  0  0  0  0  0  0  0  0  0  0  0
  126.3070    0.0930   74.9810 C   0  0  0  0  0  0  0  0  0  0  0  0
  125.9290   -1.2410   75.0930 C   0  0  0  0  0  0  0  0  0  0  0  0
  126.3960   -1.8730   74.0070 N   0  0  0  0  0  0  0  0  0  0  0  0
  127.0420   -1.0570   73.2280 N   0  0  0  0  0  0  0  0  0  0  0  0
  127.0320    0.1700   73.7810 C   0  0  0  0  0  0  0  0  0  0  0  0
  127.6330    1.3050   73.1790 C   0  0  0  0  0  0  0  0  0  0  0  0
  128.2850    1.3140   71.9940 N   0  0  0  0  0  0  0  0  0  0  0  0
  128.6930    2.5680   71.7470 C   0  0  0  0  0  0  0  0  0  0  0  0
  129.4100    3.1350   70.6750 C   0  0  0  0  0  0  0  0  0  0  0  0
  129.6960    4.5200   70.7060 C   0  0  0  0  0  0  0  0  0  0  0  0
  129.2860    5.3240   71.8090 C   0  0  0  0  0  0  0  0  0  0  0  0
  129.5760    6.7900   71.8180 C   0  0  0  0  0  0  0  0  0  0  0  0
  130.9990    7.2560   71.9700 N   0  3  0  0  0  0  0  0  0  0  0  0
  131.4160    7.3300   73.4030 C   0  0  0  0  0  0  0  0  0  0  0  0
  132.8760    7.8210   73.5350 C   0  0  0  0  0  0  0  0  0  0  0  0
  133.0330    9.1130   72.9110 O   0  0  0  0  0  0  0  0  0  0  0  0
  132.6680    9.1100   71.5120 C   0  0  0  0  0  0  0  0  0  0  0  0
  131.2280    8.5770   71.2890 C   0  0  0  0  0  0  0  0  0  0  0  0
  128.5620    4.7180   72.8730 C   0  0  0  0  0  0  0  0  0  0  0  0
  128.2780    3.3420   72.8240 C   0  0  0  0  0  0  0  0  0  0  0  0
  127.6200    2.5560   73.6930 N   0  0  0  0  0  0  0  0  0  0  0  0
  125.0112    2.3557   78.5524 H   0  0  0  0  0  0  0  0  0  0  0  0
  124.6859    3.7637   76.1373 H   0  0  0  0  0  0  0  0  0  0  0  0
  127.1767    4.6835   75.9047 H   0  0  0  0  0  0  0  0  0  0  0  0
  127.7173    3.4741   77.1178 H   0  0  0  0  0  0  0  0  0  0  0  0
  126.1018    4.5439   78.9046 H   0  0  0  0  0  0  0  0  0  0  0  0
  125.5611    5.7534   77.6915 H   0  0  0  0  0  0  0  0  0  0  0  0
  126.4852    2.0081   75.5662 H   0  0  0  0  0  0  0  0  0  0  0  0
  125.3614   -1.6872   75.9082 H   0  0  0  0  0  0  0  0  0  0  0  0
  127.4882   -1.3082   72.3343 H   0  0  0  0  0  0  0  0  0  0  0  0
  129.7362    2.5219   69.8427 H   0  0  0  0  0  0  0  0  0  0  0  0
  130.2330    4.9749   69.8816 H   0  0  0  0  0  0  0  0  0  0  0  0
  129.0045    7.2256   72.6509 H   0  0  0  0  0  0  0  0  0  0  0  0
  129.2046    7.1970   70.8660 H   0  0  0  0  0  0  0  0  0  0  0  0
  131.5872    6.5739   71.5175 H   0  0  0  0  0  0  0  0  0  0  0  0
  131.3315    6.3301   73.8535 H   0  0  0  0  0  0  0  0  0  0  0  0
  130.7530    8.0287   73.9342 H   0  0  0  0  0  0  0  0  0  0  0  0
  133.5464    7.0990   73.0460 H   0  0  0  0  0  0  0  0  0  0  0  0
  133.1365    7.8997   74.6008 H   0  0  0  0  0  0  0  0  0  0  0  0
  133.3731    8.4692   70.9622 H   0  0  0  0  0  0  0  0  0  0  0  0
  132.7298   10.1384   71.1265 H   0  0  0  0  0  0  0  0  0  0  0  0
  130.5129    9.3106   71.6895 H   0  0  0  0  0  0  0  0  0  0  0  0
  131.0597    8.4526   70.2091 H   0  0  0  0  0  0  0  0  0  0  0  0
  128.2313    5.3135   73.7163 H   0  0  0  0  0  0  0  0  0  0  0  0
  127.1883    2.8500   74.5807 H   0  0  0  0  0  0  0  0  0  0  0  0
  1  2  2  0  0  0  0
  2  3  1  0  0  0  0
  2  7  1  0  0  0  0
  3  4  1  0  0  0  0
  3 29  1  0  0  0  0
  4  5  1  0  0  0  0
  4  6  1  0  0  0  0
  4 30  1  0  0  0  0
  5  6  1  0  0  0  0
  5 31  1  0  0  0  0
  5 32  1  0  0  0  0
  6 33  1  0  0  0  0
  6 34  1  0  0  0  0
  7  8  1  0  0  0  0
  7 35  1  0  0  0  0
  8  9  1  0  0  0  0
  8 12  2  0  0  0  0
  9 10  2  0  0  0  0
  9 36  1  0  0  0  0
 10 11  1  0  0  0  0
 11 12  1  0  0  0  0
 11 37  1  0  0  0  0
 12 13  1  0  0  0  0
 13 14  2  0  0  0  0
 13 28  1  0  0  0  0
 14 15  1  0  0  0  0
 15 16  2  0  0  0  0
 15 27  1  0  0  0  0
 16 17  1  0  0  0  0
 16 38  1  0  0  0  0
 17 18  2  0  0  0  0
 17 39  1  0  0  0  0
 18 19  1  0  0  0  0
 18 26  1  0  0  0  0
 19 20  1  0  0  0  0
 19 40  1  0  0  0  0
 19 41  1  0  0  0  0
 20 21  1  0  0  0  0
 20 25  1  0  0  0  0
 20 42  1  0  0  0  0
 21 22  1  0  0  0  0
 21 43  1  0  0  0  0
 21 44  1  0  0  0  0
 22 23  1  0  0  0  0
 22 45  1  0  0  0  0
 22 46  1  0  0  0  0
 23 24  1  0  0  0  0
 24 25  1  0  0  0  0
 24 47  1  0  0  0  0
 24 48  1  0  0  0  0
 25 49  1  0  0  0  0
 25 50  1  0  0  0  0
 26 27  2  0  0  0  0
 26 51  1  0  0  0  0
 27 28  1  0  0  0  0
 28 52  1  0  0  0  0
M  CHG  1  20   1
M  END
