4qmt_ligand
 OpenBabel08222323333D

 70 74  0  0  0  0  0  0  0  0999 V2000
   18.0070    6.8820   66.4750 C   0  0  0  0  0  0  0  0  0  0  0  0
   18.1520    6.3050   65.0520 C   0  0  0  0  0  0  0  0  0  0  0  0
   16.7860    5.7750   64.5930 C   0  0  0  0  0  0  0  0  0  0  0  0
   16.3040    4.7090   65.5960 C   0  0  0  0  0  0  0  0  0  0  0  0
   16.3450    5.1570   67.0770 C   0  0  0  0  0  0  0  0  0  0  0  0
   17.5840    5.8780   67.5110 N   0  3  0  0  0  0  0  0  0  0  0  0
   17.3940    6.6010   68.8210 C   0  0  0  0  0  0  0  0  0  0  0  0
   18.4760    7.5000   69.3070 C   0  0  0  0  0  0  0  0  0  0  0  0
   18.4370    8.8950   69.0660 C   0  0  0  0  0  0  0  0  0  0  0  0
   19.4670    9.7270   69.5290 C   0  0  0  0  0  0  0  0  0  0  0  0
   19.5630    6.9800   70.0340 C   0  0  0  0  0  0  0  0  0  0  0  0
   20.5900    7.8120   70.4960 C   0  0  0  0  0  0  0  0  0  0  0  0
   20.5590    9.2060   70.2540 C   0  0  0  0  0  0  0  0  0  0  0  0
   21.4990   10.1300   70.6520 N   0  0  0  0  0  0  0  0  0  0  0  0
   22.6280   10.1030   71.4260 C   0  0  0  0  0  0  0  0  0  0  0  0
   23.1640    8.9050   71.8870 C   0  0  0  0  0  0  0  0  0  0  0  0
   24.0170    8.1300   71.0600 C   0  0  0  0  0  0  0  0  0  0  0  0
   24.5640    6.9270   71.5370 C   0  0  0  0  0  0  0  0  0  0  0  0
   24.2680    6.4940   72.8430 C   0  0  0  0  0  0  0  0  0  0  0  0
   23.4310    7.2540   73.6770 C   0  0  0  0  0  0  0  0  0  0  0  0
   22.8760    8.4600   73.2050 C   0  0  0  0  0  0  0  0  0  0  0  0
   23.2430   11.2860   71.6890 C   0  0  0  0  0  0  0  0  0  0  0  0
   24.4810   11.5830   72.3080 C   0  0  0  0  0  0  0  0  0  0  0  0
   25.4560   10.8600   73.0650 C   0  0  0  0  0  0  0  0  0  0  0  0
   22.8440   12.4980   71.1160 C   0  0  0  0  0  0  0  0  0  0  0  0
   21.8000   12.7700   70.4600 O   0  0  0  0  0  0  0  0  0  0  0  0
   23.7350   13.4550   71.3450 N   0  0  0  0  0  0  0  0  0  0  0  0
   24.7290   12.9400   72.0520 C   0  0  0  0  0  0  0  0  0  0  0  0
   25.8640   13.6160   72.5020 C   0  0  0  0  0  0  0  0  0  0  0  0
   26.8030   12.8860   73.2380 C   0  0  0  0  0  0  0  0  0  0  0  0
   26.6310   11.5180   73.5420 C   0  0  0  0  0  0  0  0  0  0  0  0
   27.5840   10.8530   74.2740 N   0  0  0  0  0  0  0  0  0  0  0  0
   27.6320    9.1770   74.6060 S   0  0  0  0  0  0  0  0  0  0  0  0
   28.8340    8.8620   75.6220 O   0  0  0  0  0  0  0  0  0  0  0  0
   26.2350    8.6670   75.1880 O   0  0  0  0  0  0  0  0  0  0  0  0
   27.8690    8.2980   73.0150 C   0  0  0  0  0  0  0  0  0  0  0  0
   29.3340    8.2940   72.5730 C   0  0  0  0  0  0  0  0  0  0  0  0
   17.2551    7.6844   66.4462 H   0  0  0  0  0  0  0  0  0  0  0  0
   18.9783    7.3003   66.7775 H   0  0  0  0  0  0  0  0  0  0  0  0
   18.8841    5.4841   65.0585 H   0  0  0  0  0  0  0  0  0  0  0  0
   18.4922    7.0944   64.3656 H   0  0  0  0  0  0  0  0  0  0  0  0
   16.8806    5.3259   63.5933 H   0  0  0  0  0  0  0  0  0  0  0  0
   16.0619    6.6022   64.5563 H   0  0  0  0  0  0  0  0  0  0  0  0
   16.9440    3.8209   65.4878 H   0  0  0  0  0  0  0  0  0  0  0  0
   15.2659    4.4456   65.3453 H   0  0  0  0  0  0  0  0  0  0  0  0
   16.2416    4.2587   67.7033 H   0  0  0  0  0  0  0  0  0  0  0  0
   15.4887    5.8253   67.2503 H   0  0  0  0  0  0  0  0  0  0  0  0
   18.3187    5.1972   67.6239 H   0  0  0  0  0  0  0  0  0  0  0  0
   17.2393    5.8340   69.5942 H   0  0  0  0  0  0  0  0  0  0  0  0
   16.4848    7.2125   68.7239 H   0  0  0  0  0  0  0  0  0  0  0  0
   17.6046    9.3232   68.5194 H   0  0  0  0  0  0  0  0  0  0  0  0
   19.4229   10.7909   69.3257 H   0  0  0  0  0  0  0  0  0  0  0  0
   19.6059    5.9166   70.2399 H   0  0  0  0  0  0  0  0  0  0  0  0
   21.4196    7.3828   71.0462 H   0  0  0  0  0  0  0  0  0  0  0  0
   21.3060   11.0694   70.2763 H   0  0  0  0  0  0  0  0  0  0  0  0
   24.2477    8.4673   70.0560 H   0  0  0  0  0  0  0  0  0  0  0  0
   25.2118    6.3343   70.9013 H   0  0  0  0  0  0  0  0  0  0  0  0
   24.6900    5.5650   73.2090 H   0  0  0  0  0  0  0  0  0  0  0  0
   23.2124    6.9130   74.6825 H   0  0  0  0  0  0  0  0  0  0  0  0
   22.2299    9.0477   73.8470 H   0  0  0  0  0  0  0  0  0  0  0  0
   25.3026    9.8082   73.2777 H   0  0  0  0  0  0  0  0  0  0  0  0
   23.6670   14.4037   71.0360 H   0  0  0  0  0  0  0  0  0  0  0  0
   26.0124   14.6684   72.2889 H   0  0  0  0  0  0  0  0  0  0  0  0
   27.6967   13.3897   73.5883 H   0  0  0  0  0  0  0  0  0  0  0  0
   28.3264   11.4064   74.6517 H   0  0  0  0  0  0  0  0  0  0  0  0
   27.2664    8.7961   72.2412 H   0  0  0  0  0  0  0  0  0  0  0  0
   27.5304    7.2578   73.1304 H   0  0  0  0  0  0  0  0  0  0  0  0
   29.4271    7.7575   71.6172 H   0  0  0  0  0  0  0  0  0  0  0  0
   29.9460    7.7916   73.3366 H   0  0  0  0  0  0  0  0  0  0  0  0
   29.6819    9.3299   72.4474 H   0  0  0  0  0  0  0  0  0  0  0  0
  1  2  1  0  0  0  0
  1  6  1  0  0  0  0
  1 38  1  0  0  0  0
  1 39  1  0  0  0  0
  2  3  1  0  0  0  0
  2 40  1  0  0  0  0
  2 41  1  0  0  0  0
  3  4  1  0  0  0  0
  3 42  1  0  0  0  0
  3 43  1  0  0  0  0
  4  5  1  0  0  0  0
  4 44  1  0  0  0  0
  4 45  1  0  0  0  0
  5  6  1  0  0  0  0
  5 46  1  0  0  0  0
  5 47  1  0  0  0  0
  6  7  1  0  0  0  0
  6 48  1  0  0  0  0
  7  8  1  0  0  0  0
  7 49  1  0  0  0  0
  7 50  1  0  0  0  0
  8  9  2  0  0  0  0
  8 11  1  0  0  0  0
  9 10  1  0  0  0  0
  9 51  1  0  0  0  0
 10 13  2  0  0  0  0
 10 52  1  0  0  0  0
 11 12  2  0  0  0  0
 11 53  1  0  0  0  0
 12 13  1  0  0  0  0
 12 54  1  0  0  0  0
 13 14  1  0  0  0  0
 14 15  1  0  0  0  0
 14 55  1  0  0  0  0
 15 16  1  0  0  0  0
 15 22  2  0  0  0  0
 16 17  2  0  0  0  0
 16 21  1  0  0  0  0
 17 18  1  0  0  0  0
 17 56  1  0  0  0  0
 18 19  2  0  0  0  0
 18 57  1  0  0  0  0
 19 20  1  0  0  0  0
 19 58  1  0  0  0  0
 20 21  2  0  0  0  0
 20 59  1  0  0  0  0
 21 60  1  0  0  0  0
 22 23  1  0  0  0  0
 22 25  1  0  0  0  0
 23 24  2  0  0  0  0
 23 28  1  0  0  0  0
 24 31  1  0  0  0  0
 24 61  1  0  0  0  0
 25 26  2  0  0  0  0
 25 27  1  0  0  0  0
 27 28  1  0  0  0  0
 27 62  1  0  0  0  0
 28 29  2  0  0  0  0
 29 30  1  0  0  0  0
 29 63  1  0  0  0  0
 30 31  2  0  0  0  0
 30 64  1  0  0  0  0
 31 32  1  0  0  0  0
 32 33  1  0  0  0  0
 32 65  1  0  0  0  0
 33 34  2  0  0  0  0
 33 35  2  0  0  0  0
 33 36  1  0  0  0  0
 36 37  1  0  0  0  0
 36 66  1  0  0  0  0
 36 67  1  0  0  0  0
 37 68  1  0  0  0  0
 37 69  1  0  0  0  0
 37 70  1  0  0  0  0
M  CHG  1   6   1
M  END
