4qmv_ligand
 OpenBabel08222323333D

 59 63  0  0  1  0  0  0  0  0999 V2000
   37.5420    2.8220   71.6720 C   0  0  0  0  0  0  0  0  0  0  0  0
   36.3190    2.5080   70.9090 C   0  0  0  0  0  0  0  0  0  0  0  0
   36.1310    3.0760   69.7980 O   0  0  0  0  0  0  0  0  0  0  0  0
   35.4110    1.6270   71.4200 N   0  0  0  0  0  0  0  0  0  0  0  0
   34.1960    1.2600   70.7620 C   0  0  0  0  0  0  0  0  0  0  0  0
   33.0380    2.1150   71.1440 C   0  0  0  0  0  0  0  0  0  0  0  0
   33.2240    3.0100   72.0120 O   0  0  0  0  0  0  0  0  0  0  0  0
   31.7810    1.9730   70.5900 N   0  0  0  0  0  0  0  0  0  0  0  0
   30.5780    2.7020   70.8780 C   0  0  1  0  0  0  0  0  0  0  0  0
   30.0440    3.0690   69.4520 C   0  0  0  0  0  0  0  0  0  0  0  0
   30.5950    1.9120   68.5710 C   0  0  0  0  0  0  0  0  0  0  0  0
   31.3110    1.0210   69.6340 C   0  0  2  0  0  0  0  0  0  0  0  0
   30.3610    0.4480   70.6130 C   0  0  0  0  0  0  0  0  0  0  0  0
   29.8980    1.5070   71.4000 C   0  0  0  0  0  0  0  0  0  0  0  0
   28.9610    1.3090   72.4250 C   0  0  0  0  0  0  0  0  0  0  0  0
   28.5100   -0.0130   72.6430 C   0  0  0  0  0  0  0  0  0  0  0  0
   28.9870   -1.0990   71.8660 C   0  0  0  0  0  0  0  0  0  0  0  0
   29.9140   -0.8600   70.8270 C   0  0  0  0  0  0  0  0  0  0  0  0
   28.5250   -2.3570   72.0880 N   0  0  0  0  0  0  0  0  0  0  0  0
   27.8750   -2.9530   73.1230 C   0  0  0  0  0  0  0  0  0  0  0  0
   27.5820   -4.2710   73.0750 N   0  0  0  0  0  0  0  0  0  0  0  0
   26.9240   -4.9010   74.0630 C   0  0  0  0  0  0  0  0  0  0  0  0
   26.5080   -4.2060   75.2080 C   0  0  0  0  0  0  0  0  0  0  0  0
   26.8160   -2.8220   75.2520 C   0  0  0  0  0  0  0  0  0  0  0  0
   27.4830   -2.2520   74.2110 N   0  0  0  0  0  0  0  0  0  0  0  0
   26.4670   -2.0600   76.3240 N   0  0  0  0  0  0  0  0  0  0  0  0
   26.9460   -0.7320   76.5510 C   0  0  0  0  0  0  0  0  0  0  0  0
   26.5450   -0.1890   77.9400 C   0  0  0  0  0  0  0  0  0  0  0  0
   26.2180    1.1450   77.2600 C   0  0  0  0  0  0  0  0  0  0  0  0
   26.0260    0.3550   75.9540 C   0  0  0  0  0  0  0  0  0  0  0  0
   25.7810   -4.9430   76.2720 C   0  0  0  0  0  0  0  0  0  0  0  0
   24.5070   -4.4550   76.4740 F   0  0  0  0  0  0  0  0  0  0  0  0
   26.4620   -4.8910   77.4490 F   0  0  0  0  0  0  0  0  0  0  0  0
   25.6280   -6.2590   75.9390 F   0  0  0  0  0  0  0  0  0  0  0  0
   37.5481    2.2451   72.6086 H   0  0  0  0  0  0  0  0  0  0  0  0
   37.5639    3.8971   71.9035 H   0  0  0  0  0  0  0  0  0  0  0  0
   38.4259    2.5578   71.0729 H   0  0  0  0  0  0  0  0  0  0  0  0
   35.6073    1.2129   72.3088 H   0  0  0  0  0  0  0  0  0  0  0  0
   33.9602    0.2171   71.0203 H   0  0  0  0  0  0  0  0  0  0  0  0
   34.3482    1.3433   69.6758 H   0  0  0  0  0  0  0  0  0  0  0  0
   30.6465    3.5579   71.5655 H   0  0  0  0  0  0  0  0  0  0  0  0
   30.4363    4.0415   69.1199 H   0  0  0  0  0  0  0  0  0  0  0  0
   28.9444    3.0917   69.4341 H   0  0  0  0  0  0  0  0  0  0  0  0
   31.3037    2.2845   67.8166 H   0  0  0  0  0  0  0  0  0  0  0  0
   29.7815    1.3654   68.0716 H   0  0  0  0  0  0  0  0  0  0  0  0
   32.0393    0.3182   69.2032 H   0  0  0  0  0  0  0  0  0  0  0  0
   28.5978    2.1355   73.0251 H   0  0  0  0  0  0  0  0  0  0  0  0
   27.7816   -0.2011   73.4234 H   0  0  0  0  0  0  0  0  0  0  0  0
   30.2719   -1.6745   70.2077 H   0  0  0  0  0  0  0  0  0  0  0  0
   28.7063   -2.9980   71.3024 H   0  0  0  0  0  0  0  0  0  0  0  0
   26.7120   -5.9603   73.9738 H   0  0  0  0  0  0  0  0  0  0  0  0
   25.8181   -2.4645   77.0141 H   0  0  0  0  0  0  0  0  0  0  0  0
   28.0121   -0.6509   76.2924 H   0  0  0  0  0  0  0  0  0  0  0  0
   27.3684   -0.1416   78.6678 H   0  0  0  0  0  0  0  0  0  0  0  0
   25.6807   -0.6937   78.3964 H   0  0  0  0  0  0  0  0  0  0  0  0
   27.0482    1.8664   77.2419 H   0  0  0  0  0  0  0  0  0  0  0  0
   25.3099    1.6403   77.6343 H   0  0  0  0  0  0  0  0  0  0  0  0
   24.9932    0.0275   75.7642 H   0  0  0  0  0  0  0  0  0  0  0  0
   26.4245    0.8501   75.0562 H   0  0  0  0  0  0  0  0  0  0  0  0
  1  2  1  0  0  0  0
  1 35  1  0  0  0  0
  1 36  1  0  0  0  0
  1 37  1  0  0  0  0
  2  3  2  0  0  0  0
  2  4  1  0  0  0  0
  4  5  1  0  0  0  0
  4 38  1  0  0  0  0
  5  6  1  0  0  0  0
  5 39  1  0  0  0  0
  5 40  1  0  0  0  0
  6  7  2  0  0  0  0
  6  8  1  0  0  0  0
  8  9  1  0  0  0  0
  8 12  1  0  0  0  0
  9 10  1  0  0  0  0
  9 14  1  0  0  0  0
  9 41  1  1  0  0  0
 10 11  1  0  0  0  0
 10 42  1  0  0  0  0
 10 43  1  0  0  0  0
 11 12  1  0  0  0  0
 11 44  1  0  0  0  0
 11 45  1  0  0  0  0
 12 13  1  0  0  0  0
 12 46  1  6  0  0  0
 13 14  2  0  0  0  0
 13 18  1  0  0  0  0
 14 15  1  0  0  0  0
 15 16  2  0  0  0  0
 15 47  1  0  0  0  0
 16 17  1  0  0  0  0
 16 48  1  0  0  0  0
 17 18  2  0  0  0  0
 17 19  1  0  0  0  0
 18 49  1  0  0  0  0
 19 20  1  0  0  0  0
 19 50  1  0  0  0  0
 20 21  2  0  0  0  0
 20 25  1  0  0  0  0
 21 22  1  0  0  0  0
 22 23  2  0  0  0  0
 22 51  1  0  0  0  0
 23 24  1  0  0  0  0
 23 31  1  0  0  0  0
 24 25  2  0  0  0  0
 24 26  1  0  0  0  0
 26 27  1  0  0  0  0
 26 52  1  0  0  0  0
 27 28  1  0  0  0  0
 27 30  1  0  0  0  0
 27 53  1  0  0  0  0
 28 29  1  0  0  0  0
 28 54  1  0  0  0  0
 28 55  1  0  0  0  0
 29 30  1  0  0  0  0
 29 56  1  0  0  0  0
 29 57  1  0  0  0  0
 30 58  1  0  0  0  0
 30 59  1  0  0  0  0
 31 32  1  0  0  0  0
 31 33  1  0  0  0  0
 31 34  1  0  0  0  0
M  END
