4yec_ligand
 OpenBabel08222323333D

 81 80  0  0  1  0  0  0  0  0999 V2000
    2.6900    5.1450   14.9970 C   0  0  0  0  0  0  0  0  0  0  0  0
    2.4460    6.3490   14.9860 O   0  0  0  0  0  0  0  0  0  0  0  0
    2.5830    4.3470   16.2630 C   0  0  0  0  0  0  0  0  0  0  0  0
    2.6240    4.4360   13.8750 N   0  0  0  0  0  0  0  0  0  0  0  0
    2.8130    5.0720   12.5740 C   0  0  2  0  0  0  0  0  0  0  0  0
    1.8710    4.4580   11.5390 C   0  0  0  0  0  0  0  0  0  0  0  0
    1.5450    3.2670   11.6110 O   0  0  0  0  0  0  0  0  0  0  0  0
    4.2790    4.9320   12.1120 C   0  0  0  0  0  0  0  0  0  0  0  0
    4.6490    3.4670   12.0580 C   0  0  0  0  0  0  0  0  0  0  0  0
    4.5190    5.6240   10.7690 C   0  0  0  0  0  0  0  0  0  0  0  0
    1.4270    5.2760   10.5860 N   0  0  0  0  0  0  0  0  0  0  0  0
    0.4790    4.8340    9.5690 C   0  0  2  0  0  0  0  0  0  0  0  0
    1.1600    3.9700    8.5110 C   0  0  0  0  0  0  0  0  0  0  0  0
    2.3510    4.1280    8.2200 O   0  0  0  0  0  0  0  0  0  0  0  0
   -0.1940    6.0410    8.9010 C   0  0  0  0  0  0  0  0  0  0  0  0
   -1.7190    6.0810    8.7580 C   0  0  0  0  0  0  0  0  0  0  0  0
   -2.3970    6.2960   10.1020 C   0  0  0  0  0  0  0  0  0  0  0  0
   -2.1380    7.1690    7.7740 C   0  0  0  0  0  0  0  0  0  0  0  0
    0.3930    3.0390    7.9570 N   0  0  0  0  0  0  0  0  0  0  0  0
    0.8340    2.2810    6.7910 C   0  0  2  0  0  0  0  0  0  0  0  0
   -0.1820    2.4730    5.6760 C   0  0  0  0  0  0  0  0  0  0  0  0
   -1.3170    2.8950    5.9400 O   0  0  0  0  0  0  0  0  0  0  0  0
    0.9930    0.7600    7.0680 C   0  0  2  0  0  0  0  0  0  0  0  0
   -0.2750    0.1970    7.4280 O   0  0  0  0  0  0  0  0  0  0  0  0
    2.0380    0.4810    8.1650 C   0  0  0  0  0  0  0  0  0  0  0  0
   -1.7730   -0.1460    4.2810 C   0  0  0  0  0  0  0  0  0  0  0  0
   -1.6130    0.7910    3.1080 C   0  0  0  0  0  0  0  0  0  0  0  0
   -2.2380    0.6280    2.0600 O   0  0  0  0  0  0  0  0  0  0  0  0
   -0.8380    2.0700    3.3050 C   0  0  1  0  0  0  0  0  0  0  0  0
    0.0680    1.9640    4.4720 N   0  0  0  0  0  0  0  0  0  0  0  0
   -0.0290    2.3890    2.0500 C   0  0  0  0  0  0  0  0  0  0  0  0
   -0.7220    3.5330    1.3310 C   0  0  0  0  0  0  0  0  0  0  0  0
    0.1010    4.1000    0.1900 C   0  0  0  0  0  0  0  0  0  0  0  0
    1.3000    4.8390    0.7330 C   0  0  0  0  0  0  0  0  0  0  0  0
    1.8100    5.6370   -0.3870 N   0  3  0  0  0  0  0  0  0  0  0  0
    2.8415    3.2977   16.0579 H   0  0  0  0  0  0  0  0  0  0  0  0
    1.5533    4.4029   16.6457 H   0  0  0  0  0  0  0  0  0  0  0  0
    3.2758    4.7553   17.0135 H   0  0  0  0  0  0  0  0  0  0  0  0
    2.4425    3.4537   13.9222 H   0  0  0  0  0  0  0  0  0  0  0  0
    2.5774    6.1421   12.6707 H   0  0  0  0  0  0  0  0  0  0  0  0
    4.9216    5.4206   12.8591 H   0  0  0  0  0  0  0  0  0  0  0  0
    5.6936    3.3646   11.7289 H   0  0  0  0  0  0  0  0  0  0  0  0
    3.9884    2.9479   11.3480 H   0  0  0  0  0  0  0  0  0  0  0  0
    4.5343    3.0227   13.0577 H   0  0  0  0  0  0  0  0  0  0  0  0
    4.2390    6.6848   10.8480 H   0  0  0  0  0  0  0  0  0  0  0  0
    3.9078    5.1403    9.9928 H   0  0  0  0  0  0  0  0  0  0  0  0
    5.5828    5.5446   10.5005 H   0  0  0  0  0  0  0  0  0  0  0  0
    1.7532    6.2211   10.5671 H   0  0  0  0  0  0  0  0  0  0  0  0
   -0.2970    4.2300   10.0619 H   0  0  0  0  0  0  0  0  0  0  0  0
    0.2229    6.1165    7.8859 H   0  0  0  0  0  0  0  0  0  0  0  0
    0.0945    6.9288    9.4829 H   0  0  0  0  0  0  0  0  0  0  0  0
   -2.0494    5.1103    8.3598 H   0  0  0  0  0  0  0  0  0  0  0  0
   -3.4879    6.3194    9.9627 H   0  0  0  0  0  0  0  0  0  0  0  0
   -2.0619    7.2508   10.5332 H   0  0  0  0  0  0  0  0  0  0  0  0
   -2.1318    5.4733   10.7823 H   0  0  0  0  0  0  0  0  0  0  0  0
   -1.6404    7.0007    6.8075 H   0  0  0  0  0  0  0  0  0  0  0  0
   -1.8469    8.1532    8.1697 H   0  0  0  0  0  0  0  0  0  0  0  0
   -3.2287    7.1376    7.6351 H   0  0  0  0  0  0  0  0  0  0  0  0
   -0.5083    2.8528    8.3480 H   0  0  0  0  0  0  0  0  0  0  0  0
    1.8078    2.6773    6.4677 H   0  0  0  0  0  0  0  0  0  0  0  0
    1.3367    0.2776    6.1411 H   0  0  0  0  0  0  0  0  0  0  0  0
   -0.1714   -0.7323    7.5960 H   0  0  0  0  0  0  0  0  0  0  0  0
    2.1178   -0.6039    8.3279 H   0  0  0  0  0  0  0  0  0  0  0  0
    1.7277    0.9703    9.1000 H   0  0  0  0  0  0  0  0  0  0  0  0
    3.0147    0.8773    7.8503 H   0  0  0  0  0  0  0  0  0  0  0  0
   -1.1251    0.1853    5.1059 H   0  0  0  0  0  0  0  0  0  0  0  0
   -1.4889   -1.1646    3.9781 H   0  0  0  0  0  0  0  0  0  0  0  0
   -2.8215   -0.1414    4.6137 H   0  0  0  0  0  0  0  0  0  0  0  0
   -1.5506    2.8882    3.4857 H   0  0  0  0  0  0  0  0  0  0  0  0
    0.9306    1.4741    4.3460 H   0  0  0  0  0  0  0  0  0  0  0  0
    0.0115    1.5055    1.3960 H   0  0  0  0  0  0  0  0  0  0  0  0
    0.9928    2.6861    2.3286 H   0  0  0  0  0  0  0  0  0  0  0  0
   -0.9163    4.3368    2.0564 H   0  0  0  0  0  0  0  0  0  0  0  0
   -1.6766    3.1658    0.9261 H   0  0  0  0  0  0  0  0  0  0  0  0
   -0.5192    4.7939   -0.3963 H   0  0  0  0  0  0  0  0  0  0  0  0
    0.4423    3.2778   -0.4562 H   0  0  0  0  0  0  0  0  0  0  0  0
    2.0654    4.1284    1.0784 H   0  0  0  0  0  0  0  0  0  0  0  0
    1.0035    5.4924    1.5667 H   0  0  0  0  0  0  0  0  0  0  0  0
    2.6185    6.1590   -0.0870 H   0  0  0  0  0  0  0  0  0  0  0  0
    1.0945    6.2752   -0.6981 H   0  0  0  0  0  0  0  0  0  0  0  0
    2.0676    5.0253   -1.1456 H   0  0  0  0  0  0  0  0  0  0  0  0
  1  2  2  0  0  0  0
  1  3  1  0  0  0  0
  3 36  1  0  0  0  0
  3 37  1  0  0  0  0
  3 38  1  0  0  0  0
  4  1  1  0  0  0  0
  4 39  1  0  0  0  0
  5  4  1  0  0  0  0
  5  8  1  0  0  0  0
  5 40  1  1  0  0  0
  6  5  1  0  0  0  0
  6  7  2  0  0  0  0
  8  9  1  0  0  0  0
  8 10  1  0  0  0  0
  8 41  1  0  0  0  0
  9 42  1  0  0  0  0
  9 43  1  0  0  0  0
  9 44  1  0  0  0  0
 10 45  1  0  0  0  0
 10 46  1  0  0  0  0
 10 47  1  0  0  0  0
 11  6  1  0  0  0  0
 11 48  1  0  0  0  0
 12 11  1  0  0  0  0
 12 15  1  0  0  0  0
 12 49  1  1  0  0  0
 13 12  1  0  0  0  0
 13 14  2  0  0  0  0
 15 16  1  0  0  0  0
 15 50  1  0  0  0  0
 15 51  1  0  0  0  0
 16 17  1  0  0  0  0
 16 18  1  0  0  0  0
 16 52  1  0  0  0  0
 17 53  1  0  0  0  0
 17 54  1  0  0  0  0
 17 55  1  0  0  0  0
 18 56  1  0  0  0  0
 18 57  1  0  0  0  0
 18 58  1  0  0  0  0
 19 13  1  0  0  0  0
 19 59  1  0  0  0  0
 20 19  1  0  0  0  0
 20 23  1  0  0  0  0
 20 60  1  6  0  0  0
 21 20  1  0  0  0  0
 21 22  2  0  0  0  0
 23 24  1  0  0  0  0
 23 25  1  0  0  0  0
 23 61  1  6  0  0  0
 24 62  1  0  0  0  0
 25 63  1  0  0  0  0
 25 64  1  0  0  0  0
 25 65  1  0  0  0  0
 26 66  1  0  0  0  0
 26 67  1  0  0  0  0
 26 68  1  0  0  0  0
 27 26  1  0  0  0  0
 27 28  2  0  0  0  0
 29 27  1  0  0  0  0
 29 30  1  0  0  0  0
 29 31  1  0  0  0  0
 29 69  1  1  0  0  0
 30 21  1  0  0  0  0
 30 70  1  0  0  0  0
 31 32  1  0  0  0  0
 31 71  1  0  0  0  0
 31 72  1  0  0  0  0
 32 33  1  0  0  0  0
 32 73  1  0  0  0  0
 32 74  1  0  0  0  0
 33 34  1  0  0  0  0
 33 75  1  0  0  0  0
 33 76  1  0  0  0  0
 34 35  1  0  0  0  0
 34 77  1  0  0  0  0
 34 78  1  0  0  0  0
 35 79  1  0  0  0  0
 35 80  1  0  0  0  0
 35 81  1  0  0  0  0
M  CHG  1  35   1
M  END
