4yqv_ligand
 OpenBabel08222323333D

 32 33  0  0  0  0  0  0  0  0999 V2000
    6.1660  -18.2180   29.9660 O   0  0  0  0  0  0  0  0  0  0  0  0
    7.3520  -17.9240   29.9100 C   0  0  0  0  0  0  0  0  0  0  0  0
    7.7300  -16.5170   30.4910 C   0  0  0  0  0  0  0  0  0  0  0  0
    8.2790  -18.7860   29.4300 N   0  0  0  0  0  0  0  0  0  0  0  0
    9.7090  -18.5340   29.5450 C   0  0  0  0  0  0  0  0  0  0  0  0
    7.8900  -19.9780   28.6890 C   0  0  0  0  0  0  0  0  0  0  0  0
    8.0460  -19.8400   27.1940 C   0  0  0  0  0  0  0  0  0  0  0  0
    9.2160  -19.7400   26.4280 C   0  0  0  0  0  0  0  0  0  0  0  0
    8.8510  -19.6770   25.1280 N   0  0  0  0  0  0  0  0  0  0  0  0
    7.4930  -19.7120   25.0050 N   0  0  0  0  0  0  0  0  0  0  0  0
    6.9940  -19.8150   26.2270 C   0  0  0  0  0  0  0  0  0  0  0  0
    9.6780  -19.6690   23.9570 C   0  0  0  0  0  0  0  0  0  0  0  0
   10.9630  -19.1310   24.0170 C   0  0  0  0  0  0  0  0  0  0  0  0
   11.8190  -19.2720   22.9340 C   0  0  0  0  0  0  0  0  0  0  0  0
   11.4000  -19.9280   21.7910 C   0  0  0  0  0  0  0  0  0  0  0  0
   10.1130  -20.4340   21.7160 C   0  0  0  0  0  0  0  0  0  0  0  0
    9.2460  -20.3100   22.7940 C   0  0  0  0  0  0  0  0  0  0  0  0
    8.8137  -16.3577   30.3900 H   0  0  0  0  0  0  0  0  0  0  0  0
    7.4503  -16.4720   31.5539 H   0  0  0  0  0  0  0  0  0  0  0  0
    7.1912  -15.7345   29.9366 H   0  0  0  0  0  0  0  0  0  0  0  0
   10.2657  -19.3650   29.0873 H   0  0  0  0  0  0  0  0  0  0  0  0
    9.9824  -18.4506   30.6072 H   0  0  0  0  0  0  0  0  0  0  0  0
    9.9589  -17.5962   29.0273 H   0  0  0  0  0  0  0  0  0  0  0  0
    6.8345  -20.1952   28.9095 H   0  0  0  0  0  0  0  0  0  0  0  0
    8.5155  -20.8171   29.0275 H   0  0  0  0  0  0  0  0  0  0  0  0
   10.2351  -19.7172   26.8112 H   0  0  0  0  0  0  0  0  0  0  0  0
    5.9322  -19.8725   26.4620 H   0  0  0  0  0  0  0  0  0  0  0  0
   11.2919  -18.6049   24.9059 H   0  0  0  0  0  0  0  0  0  0  0  0
   12.8226  -18.8653   22.9843 H   0  0  0  0  0  0  0  0  0  0  0  0
   12.0787  -20.0461   20.9540 H   0  0  0  0  0  0  0  0  0  0  0  0
    9.7805  -20.9295   20.8110 H   0  0  0  0  0  0  0  0  0  0  0  0
    8.2398  -20.7085   22.7329 H   0  0  0  0  0  0  0  0  0  0  0  0
  1  2  2  0  0  0  0
  2  3  1  0  0  0  0
  2  4  1  0  0  0  0
  3 18  1  0  0  0  0
  3 19  1  0  0  0  0
  3 20  1  0  0  0  0
  4  5  1  0  0  0  0
  4  6  1  0  0  0  0
  5 21  1  0  0  0  0
  5 22  1  0  0  0  0
  5 23  1  0  0  0  0
  6  7  1  0  0  0  0
  6 24  1  0  0  0  0
  6 25  1  0  0  0  0
  7  8  2  0  0  0  0
  7 11  1  0  0  0  0
  8  9  1  0  0  0  0
  8 26  1  0  0  0  0
  9 10  1  0  0  0  0
  9 12  1  0  0  0  0
 10 11  2  0  0  0  0
 11 27  1  0  0  0  0
 12 13  2  0  0  0  0
 12 17  1  0  0  0  0
 13 14  1  0  0  0  0
 13 28  1  0  0  0  0
 14 15  2  0  0  0  0
 14 29  1  0  0  0  0
 15 16  1  0  0  0  0
 15 30  1  0  0  0  0
 16 17  2  0  0  0  0
 16 31  1  0  0  0  0
 17 32  1  0  0  0  0
M  END
