4z0d_ligand
 OpenBabel08222323333D

200204  0  0  1  0  0  0  0  0999 V2000
   -9.7950   19.3420  -29.1420 N   0  3  0  0  0  0  0  0  0  0  0  0
  -10.6180   20.2210  -28.3210 C   0  0  2  0  0  0  0  0  0  0  0  0
  -11.6480   19.4410  -27.5120 C   0  0  0  0  0  0  0  0  0  0  0  0
  -12.1710   18.4240  -27.9680 O   0  0  0  0  0  0  0  0  0  0  0  0
  -11.3260   21.2620  -29.1930 C   0  0  0  0  0  0  0  0  0  0  0  0
  -10.2240   22.4450  -30.0020 S   0  0  0  0  0  0  0  0  0  0  0  0
  -11.9290   19.9240  -26.3070 N   0  0  0  0  0  0  0  0  0  0  0  0
  -12.9750   19.3490  -25.4720 C   0  0  2  0  0  0  0  0  0  0  0  0
  -13.9930   20.4130  -25.0890 C   0  0  0  0  0  0  0  0  0  0  0  0
  -13.7040   21.6090  -25.1320 O   0  0  0  0  0  0  0  0  0  0  0  0
  -12.3870   18.7140  -24.2100 C   0  0  0  0  0  0  0  0  0  0  0  0
  -11.5750   17.4830  -24.4680 C   0  0  0  0  0  0  0  0  0  0  0  0
  -12.0090   16.1900  -24.4160 C   0  0  0  0  0  0  0  0  0  0  0  0
  -10.1850   17.4260  -24.8100 C   0  0  0  0  0  0  0  0  0  0  0  0
  -10.9770   15.3320  -24.7080 N   0  0  0  0  0  0  0  0  0  0  0  0
   -9.8460   16.0660  -24.9540 C   0  0  0  0  0  0  0  0  0  0  0  0
   -9.1950   18.3930  -25.0100 C   0  0  0  0  0  0  0  0  0  0  0  0
   -8.5600   15.6480  -25.2890 C   0  0  0  0  0  0  0  0  0  0  0  0
   -7.9180   17.9760  -25.3430 C   0  0  0  0  0  0  0  0  0  0  0  0
   -7.6120   16.6160  -25.4790 C   0  0  0  0  0  0  0  0  0  0  0  0
  -15.1860   19.9690  -24.7140 N   0  0  0  0  0  0  0  0  0  0  0  0
  -16.2160   20.8720  -24.2280 C   0  0  2  0  0  0  0  0  0  0  0  0
  -16.6060   20.4860  -22.8090 C   0  0  0  0  0  0  0  0  0  0  0  0
  -16.9250   19.3280  -22.5410 O   0  0  0  0  0  0  0  0  0  0  0  0
  -17.4620   20.8520  -25.1310 C   0  0  2  0  0  0  0  0  0  0  0  0
  -17.1130   21.3170  -26.4400 O   0  0  0  0  0  0  0  0  0  0  0  0
  -18.5490   21.7470  -24.5580 C   0  0  0  0  0  0  0  0  0  0  0  0
  -16.5650   21.4510  -21.8970 N   0  0  0  0  0  0  0  0  0  0  0  0
  -16.9440   21.1880  -20.5170 C   0  0  2  0  0  0  0  0  0  0  0  0
  -18.4190   20.8210  -20.4350 C   0  0  0  0  0  0  0  0  0  0  0  0
  -19.2300   21.2860  -21.2370 O   0  0  0  0  0  0  0  0  0  0  0  0
  -16.6590   22.3910  -19.6020 C   0  0  2  0  0  0  0  0  0  0  0  0
  -17.2430   23.5690  -20.1620 O   0  0  0  0  0  0  0  0  0  0  0  0
  -15.1690   22.6050  -19.4650 C   0  0  0  0  0  0  0  0  0  0  0  0
  -18.7860   19.9650  -19.5120 N   0  0  0  0  0  0  0  0  0  0  0  0
  -20.1540   19.5580  -19.3670 C   0  0  2  0  0  0  0  0  0  0  0  0
  -20.8840   20.3980  -18.3500 C   0  0  0  0  0  0  0  0  0  0  0  0
  -22.0170   20.6320  -18.4950 O   0  0  0  0  0  0  0  0  0  0  0  0
  -20.2670   18.0870  -18.9740 C   0  0  0  0  0  0  0  0  0  0  0  0
  -19.8500   17.0840  -19.9970 C   0  0  0  0  0  0  0  0  0  0  0  0
  -19.8020   15.6780  -19.4780 C   0  0  0  0  0  0  0  0  0  0  0  0
  -19.5600   14.7630  -20.5760 N   0  0  0  0  0  0  0  0  0  0  0  0
  -18.4520   14.0990  -20.7800 C   0  0  0  0  0  3  0  0  0  0  0  0
  -17.4830   14.1870  -19.9310 N   0  0  0  0  0  0  0  0  0  0  0  0
  -18.3390   13.3310  -21.8280 N   0  0  0  0  0  0  0  0  0  0  0  0
  -20.1980   20.8090  -17.3060 N   0  0  0  0  0  0  0  0  0  0  0  0
  -20.7750   21.6160  -16.2430 C   0  0  2  0  0  0  0  0  0  0  0  0
  -20.8710   23.0700  -16.6770 C   0  0  0  0  0  0  0  0  0  0  0  0
  -20.1920   23.4740  -17.5990 O   0  0  0  0  0  0  0  0  0  0  0  0
  -19.9920   21.4770  -14.9490 C   0  0  0  0  0  0  0  0  0  0  0  0
  -20.4200   20.3090  -14.0890 C   0  0  0  0  0  0  0  0  0  0  0  0
  -19.3410   19.9880  -12.7260 S   0  0  0  0  0  0  0  0  0  0  0  0
  -17.8300   19.6030  -13.5340 C   0  0  0  0  0  0  0  0  0  0  0  0
  -21.7790   23.8160  -16.0730 N   0  0  0  0  0  0  0  0  0  0  0  0
  -21.9810   25.1720  -16.4980 C   0  0  2  0  0  0  0  0  0  0  0  0
  -21.0900   26.0850  -15.7270 C   0  0  0  0  0  0  0  0  0  0  0  0
  -20.8620   25.9070  -14.5600 O   0  0  0  0  0  0  0  0  0  0  0  0
  -23.4400   25.5940  -16.3900 C   0  0  0  0  0  0  0  0  0  0  0  0
  -20.5800   27.0760  -16.4170 N   0  0  0  0  0  0  0  0  0  0  0  0
  -20.8980   27.3020  -17.8320 C   0  0  2  0  0  0  0  0  0  0  0  0
  -19.8970   26.6420  -18.7790 C   0  0  0  0  0  0  0  0  0  0  0  0
  -18.6890   26.6800  -18.5320 O   0  0  0  0  0  0  0  0  0  0  0  0
  -20.8430   28.8250  -17.9680 C   0  0  0  0  0  0  0  0  0  0  0  0
  -19.8750   29.2660  -16.9040 C   0  0  0  0  0  0  0  0  0  0  0  0
  -19.8280   28.2020  -15.8330 C   0  0  0  0  0  0  0  0  0  0  0  0
  -20.4090   26.0330  -19.8590 N   0  0  0  0  0  0  0  0  0  0  0  0
  -19.6670   25.3120  -20.9040 C   0  0  2  0  0  0  0  0  0  0  0  0
  -18.6970   26.1570  -21.7290 C   0  0  0  0  0  0  0  0  0  0  0  0
  -19.0130   27.3010  -22.0440 O   0  0  0  0  0  0  0  0  0  0  0  0
  -20.7760   24.7910  -21.8160 C   0  0  0  0  0  0  0  0  0  0  0  0
  -21.9680   24.7120  -20.9600 C   0  0  0  0  0  0  0  0  0  0  0  0
  -21.8630   25.8740  -20.0250 C   0  0  0  0  0  0  0  0  0  0  0  0
  -17.5620   25.5730  -22.1160 N   0  0  0  0  0  0  0  0  0  0  0  0
  -16.5350   26.2660  -22.8960 C   0  0  2  0  0  0  0  0  0  0  0  0
  -15.7310   25.2610  -23.7070 C   0  0  0  0  0  0  0  0  0  0  0  0
  -15.7190   24.0760  -23.3920 O   0  0  0  0  0  0  0  0  0  0  0  0
  -15.6070   27.0680  -21.9760 C   0  0  0  0  0  0  0  0  0  0  0  0
  -14.9170   26.2170  -20.9170 C   0  0  0  0  0  0  0  0  0  0  0  0
  -14.3780   27.0380  -19.7590 C   0  0  0  0  0  0  0  0  0  0  0  0
  -13.4650   27.8480  -19.9270 O   0  0  0  0  0  0  0  0  0  0  0  0
  -14.9440   26.8330  -18.5750 N   0  0  0  0  0  0  0  0  0  0  0  0
  -15.0540   25.7360  -24.7460 N   0  0  0  0  0  0  0  0  0  0  0  0
  -14.2000   24.8670  -25.5420 C   0  0  2  0  0  0  0  0  0  0  0  0
  -12.7620   24.9450  -25.0450 C   0  0  0  0  0  0  0  0  0  0  0  0
  -12.2030   26.0330  -24.9060 O   0  0  0  0  0  0  0  0  0  0  0  0
  -14.2730   25.2380  -27.0240 C   0  0  0  0  0  0  0  0  0  0  0  0
  -12.1740   23.7880  -24.7620 N   0  0  0  0  0  0  0  0  0  0  0  0
  -10.7910   23.7250  -24.3090 C   0  0  2  0  0  0  0  0  0  0  0  0
   -9.9670   22.8460  -25.2450 C   0  0  0  0  0  0  0  0  0  0  0  0
  -10.1300   21.6260  -25.2710 O   0  0  0  0  0  0  0  0  0  0  0  0
  -10.6900   23.1900  -22.8690 C   0  0  2  0  0  0  0  0  0  0  0  0
  -11.3830   24.1460  -21.8980 C   0  0  0  0  0  0  0  0  0  0  0  0
   -9.2380   23.0190  -22.4670 C   0  0  0  0  0  0  0  0  0  0  0  0
  -11.5880   23.5720  -20.5140 C   0  0  0  0  0  0  0  0  0  0  0  0
   -9.0860   23.4760  -26.0150 N   0  0  0  0  0  0  0  0  0  0  0  0
   -8.2930   22.7670  -27.0130 C   0  0  2  0  0  0  0  0  0  0  0  0
   -6.9050   22.4110  -26.4870 C   0  0  0  0  0  0  0  0  0  0  0  0
   -6.2360   23.2330  -25.8620 O   0  5  0  0  0  0  0  0  0  0  0  0
   -8.1710   23.6080  -28.2850 C   0  0  0  0  0  0  0  0  0  0  0  0
   -9.7560   24.1370  -28.9790 S   0  0  0  0  0  0  0  0  0  0  0  0
   -6.4250   21.2940  -26.6760 O   0  0  0  0  0  0  0  0  0  0  0  0
   -9.1285   19.8929  -29.6601 H   0  0  0  0  0  0  0  0  0  0  0  0
  -10.3829   18.8344  -29.7844 H   0  0  0  0  0  0  0  0  0  0  0  0
   -9.3042   18.6909  -28.5494 H   0  0  0  0  0  0  0  0  0  0  0  0
   -9.9565   20.7480  -27.6176 H   0  0  0  0  0  0  0  0  0  0  0  0
  -12.0244   21.8246  -28.5561 H   0  0  0  0  0  0  0  0  0  0  0  0
  -11.8892   20.7294  -29.9734 H   0  0  0  0  0  0  0  0  0  0  0  0
  -11.4075   20.7049  -25.9631 H   0  0  0  0  0  0  0  0  0  0  0  0
  -13.4872   18.5654  -26.0495 H   0  0  0  0  0  0  0  0  0  0  0  0
  -13.2165   18.4465  -23.5389 H   0  0  0  0  0  0  0  0  0  0  0  0
  -11.7419   19.4566  -23.7177 H   0  0  0  0  0  0  0  0  0  0  0  0
  -13.0263   15.8831  -24.1775 H   0  0  0  0  0  0  0  0  0  0  0  0
  -11.0424   14.3045  -24.7373 H   0  0  0  0  0  0  0  0  0  0  0  0
   -9.4230   19.4477  -24.9064 H   0  0  0  0  0  0  0  0  0  0  0  0
   -8.3197   14.5963  -25.3950 H   0  0  0  0  0  0  0  0  0  0  0  0
   -7.1409   18.7150  -25.5014 H   0  0  0  0  0  0  0  0  0  0  0  0
   -6.6014   16.3239  -25.7407 H   0  0  0  0  0  0  0  0  0  0  0  0
  -15.3810   18.9896  -24.7671 H   0  0  0  0  0  0  0  0  0  0  0  0
  -15.8082   21.8936  -24.2196 H   0  0  0  0  0  0  0  0  0  0  0  0
  -17.8408   19.8215  -25.1988 H   0  0  0  0  0  0  0  0  0  0  0  0
  -17.8836   21.3037  -26.9955 H   0  0  0  0  0  0  0  0  0  0  0  0
  -19.4304   21.7202  -25.2156 H   0  0  0  0  0  0  0  0  0  0  0  0
  -18.1751   22.7791  -24.4879 H   0  0  0  0  0  0  0  0  0  0  0  0
  -18.8282   21.3893  -23.5560 H   0  0  0  0  0  0  0  0  0  0  0  0
  -16.2702   22.3691  -22.1620 H   0  0  0  0  0  0  0  0  0  0  0  0
  -16.3508   20.3345  -20.1570 H   0  0  0  0  0  0  0  0  0  0  0  0
  -17.0933   22.2016  -18.6093 H   0  0  0  0  0  0  0  0  0  0  0  0
  -17.0651   24.3098  -19.5945 H   0  0  0  0  0  0  0  0  0  0  0  0
  -14.9813   23.4675  -18.8087 H   0  0  0  0  0  0  0  0  0  0  0  0
  -14.7334   22.7972  -20.4566 H   0  0  0  0  0  0  0  0  0  0  0  0
  -14.7079   21.7061  -19.0300 H   0  0  0  0  0  0  0  0  0  0  0  0
  -18.0961   19.5870  -18.8946 H   0  0  0  0  0  0  0  0  0  0  0  0
  -20.6474   19.6923  -20.3409 H   0  0  0  0  0  0  0  0  0  0  0  0
  -21.3197   17.8892  -18.7237 H   0  0  0  0  0  0  0  0  0  0  0  0
  -19.6425   17.9318  -18.0818 H   0  0  0  0  0  0  0  0  0  0  0  0
  -18.8475   17.3545  -20.3602 H   0  0  0  0  0  0  0  0  0  0  0  0
  -20.5651   17.1217  -20.8320 H   0  0  0  0  0  0  0  0  0  0  0  0
  -20.7615   15.4310  -19.0003 H   0  0  0  0  0  0  0  0  0  0  0  0
  -18.9910   15.5874  -18.7404 H   0  0  0  0  0  0  0  0  0  0  0  0
  -20.3246   14.6242  -21.2520 H   0  0  0  0  0  0  0  0  0  0  0  0
  -16.6097   13.6646  -20.0903 H   0  0  0  0  0  0  0  0  0  0  0  0
  -17.5834   14.7796  -19.0945 H   0  0  0  0  0  0  0  0  0  0  0  0
  -19.1141   13.2634  -22.5029 H   0  0  0  0  0  0  0  0  0  0  0  0
  -17.4747   12.7920  -21.9807 H   0  0  0  0  0  0  0  0  0  0  0  0
  -19.2332   20.5543  -17.2401 H   0  0  0  0  0  0  0  0  0  0  0  0
  -21.7955   21.2500  -16.0570 H   0  0  0  0  0  0  0  0  0  0  0  0
  -20.1219   22.4007  -14.3660 H   0  0  0  0  0  0  0  0  0  0  0  0
  -18.9289   21.3488  -15.2009 H   0  0  0  0  0  0  0  0  0  0  0  0
  -20.4568   19.4092  -14.7207 H   0  0  0  0  0  0  0  0  0  0  0  0
  -21.4243   20.5204  -13.6931 H   0  0  0  0  0  0  0  0  0  0  0  0
  -17.0589   19.3789  -12.7822 H   0  0  0  0  0  0  0  0  0  0  0  0
  -17.5102   20.4619  -14.1423 H   0  0  0  0  0  0  0  0  0  0  0  0
  -17.9743   18.7271  -14.1835 H   0  0  0  0  0  0  0  0  0  0  0  0
  -22.3226   23.4378  -15.3237 H   0  0  0  0  0  0  0  0  0  0  0  0
  -21.6959   25.2376  -17.5584 H   0  0  0  0  0  0  0  0  0  0  0  0
  -23.5460   26.6363  -16.7252 H   0  0  0  0  0  0  0  0  0  0  0  0
  -23.7696   25.5100  -15.3439 H   0  0  0  0  0  0  0  0  0  0  0  0
  -24.0585   24.9407  -17.0229 H   0  0  0  0  0  0  0  0  0  0  0  0
  -21.9060   26.9261  -18.0611 H   0  0  0  0  0  0  0  0  0  0  0  0
  -21.8359   29.2664  -17.7967 H   0  0  0  0  0  0  0  0  0  0  0  0
  -20.4809   29.1130  -18.9659 H   0  0  0  0  0  0  0  0  0  0  0  0
  -20.2109   30.2181  -16.4674 H   0  0  0  0  0  0  0  0  0  0  0  0
  -18.8747   29.3963  -17.3425 H   0  0  0  0  0  0  0  0  0  0  0  0
  -18.7897   27.9093  -15.6178 H   0  0  0  0  0  0  0  0  0  0  0  0
  -20.3083   28.5558  -14.9088 H   0  0  0  0  0  0  0  0  0  0  0  0
  -19.1063   24.4808  -20.4516 H   0  0  0  0  0  0  0  0  0  0  0  0
  -20.5171   23.7974  -22.2105 H   0  0  0  0  0  0  0  0  0  0  0  0
  -20.9463   25.4847  -22.6525 H   0  0  0  0  0  0  0  0  0  0  0  0
  -21.9768   23.7660  -20.3987 H   0  0  0  0  0  0  0  0  0  0  0  0
  -22.8828   24.7873  -21.5662 H   0  0  0  0  0  0  0  0  0  0  0  0
  -22.3122   26.7770  -20.4642 H   0  0  0  0  0  0  0  0  0  0  0  0
  -22.3492   25.6531  -19.0633 H   0  0  0  0  0  0  0  0  0  0  0  0
  -17.4055   24.6186  -21.8619 H   0  0  0  0  0  0  0  0  0  0  0  0
  -17.0301   26.9628  -23.5883 H   0  0  0  0  0  0  0  0  0  0  0  0
  -16.2030   27.8404  -21.4679 H   0  0  0  0  0  0  0  0  0  0  0  0
  -14.8344   27.5486  -22.5941 H   0  0  0  0  0  0  0  0  0  0  0  0
  -14.0792   25.6818  -21.3878 H   0  0  0  0  0  0  0  0  0  0  0  0
  -15.6423   25.4895  -20.5239 H   0  0  0  0  0  0  0  0  0  0  0  0
  -14.6303   27.3452  -17.7755 H   0  0  0  0  0  0  0  0  0  0  0  0
  -15.6838   26.1665  -18.4831 H   0  0  0  0  0  0  0  0  0  0  0  0
  -15.1320   26.7040  -24.9847 H   0  0  0  0  0  0  0  0  0  0  0  0
  -14.5537   23.8319  -25.4263 H   0  0  0  0  0  0  0  0  0  0  0  0
  -13.6200   24.5678  -27.6023 H   0  0  0  0  0  0  0  0  0  0  0  0
  -13.9418   26.2783  -27.1583 H   0  0  0  0  0  0  0  0  0  0  0  0
  -15.3096   25.1347  -27.3773 H   0  0  0  0  0  0  0  0  0  0  0  0
  -12.6935   22.9394  -24.8624 H   0  0  0  0  0  0  0  0  0  0  0  0
  -10.3760   24.7435  -24.3291 H   0  0  0  0  0  0  0  0  0  0  0  0
  -11.1891   22.2109  -22.8209 H   0  0  0  0  0  0  0  0  0  0  0  0
  -12.3672   24.4082  -22.3134 H   0  0  0  0  0  0  0  0  0  0  0  0
  -10.7689   25.0542  -21.8087 H   0  0  0  0  0  0  0  0  0  0  0  0
   -8.7423   22.3308  -23.1674 H   0  0  0  0  0  0  0  0  0  0  0  0
   -9.1856   22.6064  -21.4487 H   0  0  0  0  0  0  0  0  0  0  0  0
   -8.7327   23.9957  -22.4934 H   0  0  0  0  0  0  0  0  0  0  0  0
  -12.0896   24.3169  -19.8788 H   0  0  0  0  0  0  0  0  0  0  0  0
  -10.6126   23.3139  -20.0759 H   0  0  0  0  0  0  0  0  0  0  0  0
  -12.2109   22.6678  -20.5806 H   0  0  0  0  0  0  0  0  0  0  0  0
   -8.9634   24.4626  -25.9073 H   0  0  0  0  0  0  0  0  0  0  0  0
   -8.8149   21.8315  -27.2627 H   0  0  0  0  0  0  0  0  0  0  0  0
   -7.6441   23.0111  -29.0440 H   0  0  0  0  0  0  0  0  0  0  0  0
   -7.5806   24.5058  -28.0497 H   0  0  0  0  0  0  0  0  0  0  0  0
  1  2  1  0  0  0  0
  1102  1  0  0  0  0
  1103  1  0  0  0  0
  1104  1  0  0  0  0
  2  3  1  0  0  0  0
  2  5  1  0  0  0  0
  2105  1  1  0  0  0
  3  4  2  0  0  0  0
  3  7  1  0  0  0  0
  5  6  1  0  0  0  0
  5106  1  0  0  0  0
  5107  1  0  0  0  0
  6100  1  0  0  0  0
  7  8  1  0  0  0  0
  7108  1  0  0  0  0
  8  9  1  0  0  0  0
  8 11  1  0  0  0  0
  8109  1  6  0  0  0
  9 10  2  0  0  0  0
  9 21  1  0  0  0  0
 11 12  1  0  0  0  0
 11110  1  0  0  0  0
 11111  1  0  0  0  0
 12 13  2  0  0  0  0
 12 14  1  0  0  0  0
 13 15  1  0  0  0  0
 13112  1  0  0  0  0
 14 16  2  0  0  0  0
 14 17  1  0  0  0  0
 15 16  1  0  0  0  0
 15113  1  0  0  0  0
 16 18  1  0  0  0  0
 17 19  2  0  0  0  0
 17114  1  0  0  0  0
 18 20  2  0  0  0  0
 18115  1  0  0  0  0
 19 20  1  0  0  0  0
 19116  1  0  0  0  0
 20117  1  0  0  0  0
 21 22  1  0  0  0  0
 21118  1  0  0  0  0
 22 23  1  0  0  0  0
 22 25  1  0  0  0  0
 22119  1  1  0  0  0
 23 24  2  0  0  0  0
 23 28  1  0  0  0  0
 25 26  1  0  0  0  0
 25 27  1  0  0  0  0
 25120  1  6  0  0  0
 26121  1  0  0  0  0
 27122  1  0  0  0  0
 27123  1  0  0  0  0
 27124  1  0  0  0  0
 28 29  1  0  0  0  0
 28125  1  0  0  0  0
 29 30  1  0  0  0  0
 29 32  1  0  0  0  0
 29126  1  1  0  0  0
 30 31  2  0  0  0  0
 30 35  1  0  0  0  0
 32 33  1  0  0  0  0
 32 34  1  0  0  0  0
 32127  1  1  0  0  0
 33128  1  0  0  0  0
 34129  1  0  0  0  0
 34130  1  0  0  0  0
 34131  1  0  0  0  0
 35 36  1  0  0  0  0
 35132  1  0  0  0  0
 36 37  1  0  0  0  0
 36 39  1  0  0  0  0
 36133  1  6  0  0  0
 37 38  2  0  0  0  0
 37 46  1  0  0  0  0
 39 40  1  0  0  0  0
 39134  1  0  0  0  0
 39135  1  0  0  0  0
 40 41  1  0  0  0  0
 40136  1  0  0  0  0
 40137  1  0  0  0  0
 41 42  1  0  0  0  0
 41138  1  0  0  0  0
 41139  1  0  0  0  0
 42 43  1  0  0  0  0
 42140  1  0  0  0  0
 43 44  1  0  0  0  0
 43 45  1  0  0  0  0
 44141  1  0  0  0  0
 44142  1  0  0  0  0
 45143  1  0  0  0  0
 45144  1  0  0  0  0
 46 47  1  0  0  0  0
 46145  1  0  0  0  0
 47 48  1  0  0  0  0
 47 50  1  0  0  0  0
 47146  1  1  0  0  0
 48 49  2  0  0  0  0
 48 54  1  0  0  0  0
 50 51  1  0  0  0  0
 50147  1  0  0  0  0
 50148  1  0  0  0  0
 51 52  1  0  0  0  0
 51149  1  0  0  0  0
 51150  1  0  0  0  0
 52 53  1  0  0  0  0
 53151  1  0  0  0  0
 53152  1  0  0  0  0
 53153  1  0  0  0  0
 54 55  1  0  0  0  0
 54154  1  0  0  0  0
 55 56  1  0  0  0  0
 55 58  1  0  0  0  0
 55155  1  6  0  0  0
 56 57  2  0  0  0  0
 56 59  1  0  0  0  0
 58156  1  0  0  0  0
 58157  1  0  0  0  0
 58158  1  0  0  0  0
 59 60  1  0  0  0  0
 59 65  1  0  0  0  0
 60 61  1  0  0  0  0
 60 63  1  0  0  0  0
 60159  1  6  0  0  0
 61 62  2  0  0  0  0
 61 66  1  0  0  0  0
 63 64  1  0  0  0  0
 63160  1  0  0  0  0
 63161  1  0  0  0  0
 64 65  1  0  0  0  0
 64162  1  0  0  0  0
 64163  1  0  0  0  0
 65164  1  0  0  0  0
 65165  1  0  0  0  0
 66 67  1  0  0  0  0
 66 72  1  0  0  0  0
 67 68  1  0  0  0  0
 67 70  1  0  0  0  0
 67166  1  1  0  0  0
 68 69  2  0  0  0  0
 68 73  1  0  0  0  0
 70 71  1  0  0  0  0
 70167  1  0  0  0  0
 70168  1  0  0  0  0
 71 72  1  0  0  0  0
 71169  1  0  0  0  0
 71170  1  0  0  0  0
 72171  1  0  0  0  0
 72172  1  0  0  0  0
 73 74  1  0  0  0  0
 73173  1  0  0  0  0
 74 75  1  0  0  0  0
 74 77  1  0  0  0  0
 74174  1  6  0  0  0
 75 76  2  0  0  0  0
 75 82  1  0  0  0  0
 77 78  1  0  0  0  0
 77175  1  0  0  0  0
 77176  1  0  0  0  0
 78 79  1  0  0  0  0
 78177  1  0  0  0  0
 78178  1  0  0  0  0
 79 80  2  0  0  0  0
 79 81  1  0  0  0  0
 81179  1  0  0  0  0
 81180  1  0  0  0  0
 82 83  1  0  0  0  0
 82181  1  0  0  0  0
 83 84  1  0  0  0  0
 83 86  1  0  0  0  0
 83182  1  1  0  0  0
 84 85  2  0  0  0  0
 84 87  1  0  0  0  0
 86183  1  0  0  0  0
 86184  1  0  0  0  0
 86185  1  0  0  0  0
 87 88  1  0  0  0  0
 87186  1  0  0  0  0
 88 89  1  0  0  0  0
 88 91  1  0  0  0  0
 88187  1  6  0  0  0
 89 90  2  0  0  0  0
 89 95  1  0  0  0  0
 91 92  1  0  0  0  0
 91 93  1  0  0  0  0
 91188  1  1  0  0  0
 92 94  1  0  0  0  0
 92189  1  0  0  0  0
 92190  1  0  0  0  0
 93191  1  0  0  0  0
 93192  1  0  0  0  0
 93193  1  0  0  0  0
 94194  1  0  0  0  0
 94195  1  0  0  0  0
 94196  1  0  0  0  0
 95 96  1  0  0  0  0
 95197  1  0  0  0  0
 96 97  1  0  0  0  0
 96 99  1  0  0  0  0
 96198  1  6  0  0  0
 97 98  1  0  0  0  0
 97101  2  0  0  0  0
 99100  1  0  0  0  0
 99199  1  0  0  0  0
 99200  1  0  0  0  0
M  CHG  2   1   1  98  -1
M  END
