4z0f_ligand
 OpenBabel08222323333D

208212  0  0  1  0  0  0  0  0999 V2000
  -10.2810   19.1290  -29.1610 N   0  3  0  0  0  0  0  0  0  0  0  0
  -11.1060   20.0700  -28.4120 C   0  0  2  0  0  0  0  0  0  0  0  0
  -12.1840   19.3580  -27.6000 C   0  0  0  0  0  0  0  0  0  0  0  0
  -12.7110   18.3260  -28.0140 O   0  0  0  0  0  0  0  0  0  0  0  0
  -11.7530   21.0860  -29.3560 C   0  0  0  0  0  0  0  0  0  0  0  0
  -10.5920   22.2260  -30.1430 S   0  0  0  0  0  0  0  0  0  0  0  0
  -12.5050   19.9210  -26.4390 N   0  0  0  0  0  0  0  0  0  0  0  0
  -13.5340   19.3820  -25.5860 C   0  0  1  0  0  0  0  0  0  0  0  0
  -12.9780   18.7480  -24.2940 C   0  0  0  0  0  0  0  0  0  0  0  0
  -12.1090   17.5990  -24.5620 C   0  0  0  0  0  0  0  0  0  0  0  0
  -10.7240   17.6440  -24.9820 C   0  0  0  0  0  0  0  0  0  0  0  0
   -9.8200   18.6730  -25.2500 C   0  0  0  0  0  0  0  0  0  0  0  0
  -10.2970   16.2690  -25.1170 C   0  0  0  0  0  0  0  0  0  0  0  0
  -11.3760   15.4430  -24.7940 N   0  0  0  0  0  0  0  0  0  0  0  0
  -12.4620   16.2510  -24.4610 C   0  0  0  0  0  0  0  0  0  0  0  0
   -8.9910   15.9500  -25.5150 C   0  0  0  0  0  0  0  0  0  0  0  0
   -8.1320   17.0120  -25.7710 C   0  0  0  0  0  0  0  0  0  0  0  0
   -6.5390   16.6760  -26.2570 Cl  0  0  0  0  0  0  0  0  0  0  0  0
   -8.5310   18.3570  -25.6440 C   0  0  0  0  0  0  0  0  0  0  0  0
  -14.5160   20.4640  -25.1510 C   0  0  0  0  0  0  0  0  0  0  0  0
  -14.2710   21.6700  -25.1830 O   0  0  0  0  0  0  0  0  0  0  0  0
  -15.6840   20.0010  -24.7200 N   0  0  0  0  0  0  0  0  0  0  0  0
  -16.7170   20.8890  -24.2060 C   0  0  2  0  0  0  0  0  0  0  0  0
  -17.0690   20.4970  -22.7770 C   0  0  0  0  0  0  0  0  0  0  0  0
  -17.3630   19.3360  -22.5050 O   0  0  0  0  0  0  0  0  0  0  0  0
  -17.9860   20.8490  -25.0780 C   0  0  2  0  0  0  0  0  0  0  0  0
  -17.6860   21.3430  -26.3900 O   0  0  0  0  0  0  0  0  0  0  0  0
  -19.0840   21.7030  -24.4630 C   0  0  0  0  0  0  0  0  0  0  0  0
  -17.0250   21.4610  -21.8620 N   0  0  0  0  0  0  0  0  0  0  0  0
  -17.3680   21.1890  -20.4700 C   0  0  2  0  0  0  0  0  0  0  0  0
  -18.8480   20.8440  -20.3370 C   0  0  0  0  0  0  0  0  0  0  0  0
  -19.6930   21.4220  -21.0190 O   0  0  0  0  0  0  0  0  0  0  0  0
  -17.0380   22.3820  -19.5530 C   0  0  2  0  0  0  0  0  0  0  0  0
  -17.5860   23.5820  -20.1100 O   0  0  0  0  0  0  0  0  0  0  0  0
  -15.5340   22.5410  -19.4090 C   0  0  0  0  0  0  0  0  0  0  0  0
  -19.1510   19.8920  -19.4610 N   0  0  0  0  0  0  0  0  0  0  0  0
  -20.5270   19.4610  -19.2450 C   0  0  2  0  0  0  0  0  0  0  0  0
  -21.2180   20.3290  -18.1980 C   0  0  0  0  0  0  0  0  0  0  0  0
  -22.4110   20.6160  -18.3050 O   0  0  0  0  0  0  0  0  0  0  0  0
  -20.5680   17.9910  -18.8220 C   0  0  0  0  0  0  0  0  0  0  0  0
  -20.0770   17.0190  -19.8860 C   0  0  0  0  0  0  0  0  0  0  0  0
  -20.1420   15.5820  -19.3910 C   0  0  0  0  0  0  0  0  0  0  0  0
  -20.0170   14.6170  -20.4800 N   0  0  0  0  0  0  0  0  0  0  0  0
  -18.8880   13.9960  -20.8090 C   0  0  0  0  0  3  0  0  0  0  0  0
  -17.7730   14.2340  -20.1320 N   0  0  0  0  0  0  0  0  0  0  0  0
  -18.8750   13.1340  -21.8170 N   0  0  0  0  0  0  0  0  0  0  0  0
  -20.4620   20.7460  -17.1880 N   0  0  0  0  0  0  0  0  0  0  0  0
  -21.0050   21.5740  -16.1180 C   0  0  2  0  0  0  0  0  0  0  0  0
  -21.0070   23.0500  -16.5020 C   0  0  0  0  0  0  0  0  0  0  0  0
  -20.0460   23.5540  -17.0830 O   0  0  0  0  0  0  0  0  0  0  0  0
  -20.2150   21.3650  -14.8260 C   0  0  0  0  0  0  0  0  0  0  0  0
  -20.4800   20.0260  -14.1590 C   0  0  0  0  0  0  0  0  0  0  0  0
  -19.5470   19.7920  -12.6350 S   0  0  0  0  0  0  0  0  0  0  0  0
  -17.8750   19.6700  -13.2660 C   0  0  0  0  0  0  0  0  0  0  0  0
  -22.0970   23.7350  -16.1680 N   0  0  0  0  0  0  0  0  0  0  0  0
  -22.2640   25.1460  -16.4990 C   0  0  2  0  0  0  0  0  0  0  0  0
  -21.3490   26.0350  -15.6560 C   0  0  0  0  0  0  0  0  0  0  0  0
  -21.1330   25.7610  -14.4760 O   0  0  0  0  0  0  0  0  0  0  0  0
  -23.7250   25.5640  -16.3110 C   0  0  0  0  0  0  0  0  0  0  0  0
  -24.5720   24.9040  -17.2370 O   0  0  0  0  0  0  0  0  0  0  0  0
  -20.8130   27.1100  -16.2580 N   0  0  0  0  0  0  0  0  0  0  0  0
  -21.0300   27.5090  -17.6540 C   0  0  2  0  0  0  0  0  0  0  0  0
  -20.1810   26.7160  -18.6460 C   0  0  0  0  0  0  0  0  0  0  0  0
  -18.9750   26.5670  -18.4470 O   0  0  0  0  0  0  0  0  0  0  0  0
  -20.6290   28.9850  -17.6570 C   0  0  0  0  0  0  0  0  0  0  0  0
  -19.6040   29.0860  -16.5890 C   0  0  0  0  0  0  0  0  0  0  0  0
  -20.0080   28.1020  -15.5230 C   0  0  0  0  0  0  0  0  0  0  0  0
  -20.8170   26.2050  -19.7110 N   0  0  0  0  0  0  0  0  0  0  0  0
  -20.1370   25.4190  -20.7440 C   0  0  2  0  0  0  0  0  0  0  0  0
  -19.1590   26.2520  -21.5600 C   0  0  0  0  0  0  0  0  0  0  0  0
  -19.4880   27.3490  -22.0110 O   0  0  0  0  0  0  0  0  0  0  0  0
  -21.2880   24.9170  -21.6250 C   0  0  0  0  0  0  0  0  0  0  0  0
  -22.5200   25.0850  -20.7980 C   0  0  0  0  0  0  0  0  0  0  0  0
  -22.2640   26.2900  -19.9570 C   0  0  0  0  0  0  0  0  0  0  0  0
  -17.9590   25.7140  -21.7400 N   0  0  0  0  0  0  0  0  0  0  0  0
  -16.9090   26.3720  -22.5010 C   0  0  2  0  0  0  0  0  0  0  0  0
  -16.1940   25.3460  -23.3630 C   0  0  0  0  0  0  0  0  0  0  0  0
  -16.4370   24.1440  -23.2420 O   0  0  0  0  0  0  0  0  0  0  0  0
  -15.9220   27.0630  -21.5640 C   0  0  0  0  0  0  0  0  0  0  0  0
  -15.2390   26.1030  -20.6070 C   0  0  0  0  0  0  0  0  0  0  0  0
  -14.3540   26.8060  -19.6020 C   0  0  0  0  0  0  0  0  0  0  0  0
  -14.6260   26.7930  -18.4010 O   0  0  0  0  0  0  0  0  0  0  0  0
  -13.2880   27.4300  -20.0880 N   0  0  0  0  0  0  0  0  0  0  0  0
  -15.3120   25.8120  -24.2370 N   0  0  0  0  0  0  0  0  0  0  0  0
  -14.5310   24.8910  -25.0450 C   0  0  2  0  0  0  0  0  0  0  0  0
  -13.0510   24.9700  -24.6770 C   0  0  0  0  0  0  0  0  0  0  0  0
  -12.5080   26.0510  -24.4280 O   0  0  0  0  0  0  0  0  0  0  0  0
  -14.7020   25.1640  -26.5270 C   0  0  0  0  0  0  0  0  0  0  0  0
  -14.9530   23.8810  -27.3230 C   0  0  0  0  0  0  0  0  0  0  0  0
  -15.1370   24.1140  -28.8040 C   0  0  0  0  0  0  0  0  0  0  0  0
  -16.1280   23.6800  -29.3820 O   0  0  0  0  0  0  0  0  0  0  0  0
  -14.1640   24.7620  -29.4380 N   0  0  0  0  0  0  0  0  0  0  0  0
  -12.4140   23.8050  -24.6320 N   0  0  0  0  0  0  0  0  0  0  0  0
  -11.0120   23.6620  -24.2650 C   0  0  2  0  0  0  0  0  0  0  0  0
  -10.2750   22.8870  -25.3500 C   0  0  0  0  0  0  0  0  0  0  0  0
  -10.5460   21.7100  -25.5710 O   0  0  0  0  0  0  0  0  0  0  0  0
  -10.8680   22.9320  -22.9170 C   0  0  2  0  0  0  0  0  0  0  0  0
  -11.8660   23.4960  -21.8960 C   0  0  0  0  0  0  0  0  0  0  0  0
   -9.4410   23.0340  -22.3980 C   0  0  0  0  0  0  0  0  0  0  0  0
  -12.0170   22.6540  -20.6600 C   0  0  0  0  0  0  0  0  0  0  0  0
   -9.3490   23.5530  -26.0300 N   0  0  0  0  0  0  0  0  0  0  0  0
   -8.6510   22.9460  -27.1590 C   0  0  2  0  0  0  0  0  0  0  0  0
   -7.1560   22.7870  -26.8920 C   0  0  0  0  0  0  0  0  0  0  0  0
   -6.6660   23.1510  -25.8240 O   0  5  0  0  0  0  0  0  0  0  0  0
   -8.8700   23.7770  -28.4260 C   0  0  0  0  0  0  0  0  0  0  0  0
  -10.5940   23.8800  -28.9620 S   0  0  0  0  0  0  0  0  0  0  0  0
   -6.4150   22.2920  -27.7400 O   0  0  0  0  0  0  0  0  0  0  0  0
   -9.5830   19.6356  -29.6828 H   0  0  0  0  0  0  0  0  0  0  0  0
  -10.8617   18.6054  -29.7971 H   0  0  0  0  0  0  0  0  0  0  0  0
   -9.8280   18.4958  -28.5208 H   0  0  0  0  0  0  0  0  0  0  0  0
  -10.4530   20.6128  -27.7127 H   0  0  0  0  0  0  0  0  0  0  0  0
  -12.4775   21.6786  -28.7781 H   0  0  0  0  0  0  0  0  0  0  0  0
  -12.2800   20.5324  -30.1471 H   0  0  0  0  0  0  0  0  0  0  0  0
  -12.0171   20.7442  -26.1486 H   0  0  0  0  0  0  0  0  0  0  0  0
  -14.0747   18.6113  -26.1548 H   0  0  0  0  0  0  0  0  0  0  0  0
  -13.8224   18.4144  -23.6730 H   0  0  0  0  0  0  0  0  0  0  0  0
  -12.3995   19.5082  -23.7486 H   0  0  0  0  0  0  0  0  0  0  0  0
  -10.1240   19.7088  -25.1507 H   0  0  0  0  0  0  0  0  0  0  0  0
  -11.3702   14.4130  -24.8007 H   0  0  0  0  0  0  0  0  0  0  0  0
  -13.4438   15.8844  -24.1649 H   0  0  0  0  0  0  0  0  0  0  0  0
   -8.6659   14.9211  -25.6184 H   0  0  0  0  0  0  0  0  0  0  0  0
   -7.8236   19.1504  -25.8563 H   0  0  0  0  0  0  0  0  0  0  0  0
  -15.8584   19.0168  -24.7493 H   0  0  0  0  0  0  0  0  0  0  0  0
  -16.3250   21.9168  -24.2070 H   0  0  0  0  0  0  0  0  0  0  0  0
  -18.3372   19.8092  -25.1524 H   0  0  0  0  0  0  0  0  0  0  0  0
  -18.4711   21.3166  -26.9243 H   0  0  0  0  0  0  0  0  0  0  0  0
  -19.9804   21.6616  -25.0992 H   0  0  0  0  0  0  0  0  0  0  0  0
  -18.7380   22.7442  -24.3843 H   0  0  0  0  0  0  0  0  0  0  0  0
  -19.3278   21.3208  -23.4608 H   0  0  0  0  0  0  0  0  0  0  0  0
  -16.7532   22.3848  -22.1315 H   0  0  0  0  0  0  0  0  0  0  0  0
  -16.7762   20.3237  -20.1367 H   0  0  0  0  0  0  0  0  0  0  0  0
  -17.4793   22.2060  -18.5609 H   0  0  0  0  0  0  0  0  0  0  0  0
  -17.2106   23.7308  -20.9700 H   0  0  0  0  0  0  0  0  0  0  0  0
  -15.3170   23.3961  -18.7520 H   0  0  0  0  0  0  0  0  0  0  0  0
  -15.0874   22.7165  -20.3988 H   0  0  0  0  0  0  0  0  0  0  0  0
  -15.1087   21.6256  -18.9719 H   0  0  0  0  0  0  0  0  0  0  0  0
  -18.4169   19.4603  -18.9368 H   0  0  0  0  0  0  0  0  0  0  0  0
  -21.0730   19.5648  -20.1943 H   0  0  0  0  0  0  0  0  0  0  0  0
  -21.6080   17.7329  -18.5733 H   0  0  0  0  0  0  0  0  0  0  0  0
  -19.9369   17.8717  -17.9290 H   0  0  0  0  0  0  0  0  0  0  0  0
  -19.0355   17.2634  -20.1420 H   0  0  0  0  0  0  0  0  0  0  0  0
  -20.7078   17.1187  -20.7816 H   0  0  0  0  0  0  0  0  0  0  0  0
  -21.1069   15.4243  -18.8870 H   0  0  0  0  0  0  0  0  0  0  0  0
  -19.3232   15.4165  -18.6754 H   0  0  0  0  0  0  0  0  0  0  0  0
  -20.8607   14.4028  -21.0307 H   0  0  0  0  0  0  0  0  0  0  0  0
  -16.9007   13.7509  -20.3901 H   0  0  0  0  0  0  0  0  0  0  0  0
  -17.7792   14.9020  -19.3480 H   0  0  0  0  0  0  0  0  0  0  0  0
  -19.7390   12.9464  -22.3454 H   0  0  0  0  0  0  0  0  0  0  0  0
  -18.0009   12.6522  -22.0714 H   0  0  0  0  0  0  0  0  0  0  0  0
  -19.4969   20.4855  -17.1612 H   0  0  0  0  0  0  0  0  0  0  0  0
  -22.0456   21.2646  -15.9411 H   0  0  0  0  0  0  0  0  0  0  0  0
  -20.4854   22.1642  -14.1202 H   0  0  0  0  0  0  0  0  0  0  0  0
  -19.1422   21.4301  -15.0603 H   0  0  0  0  0  0  0  0  0  0  0  0
  -20.2066   19.2255  -14.8621 H   0  0  0  0  0  0  0  0  0  0  0  0
  -21.5528   19.9584  -13.9255 H   0  0  0  0  0  0  0  0  0  0  0  0
  -17.1771   19.5217  -12.4288 H   0  0  0  0  0  0  0  0  0  0  0  0
  -17.6159   20.5963  -13.7996 H   0  0  0  0  0  0  0  0  0  0  0  0
  -17.8052   18.8170  -13.9570 H   0  0  0  0  0  0  0  0  0  0  0  0
  -22.8281   23.2662  -15.6723 H   0  0  0  0  0  0  0  0  0  0  0  0
  -21.9961   25.2838  -17.5569 H   0  0  0  0  0  0  0  0  0  0  0  0
  -23.8090   26.6506  -16.4598 H   0  0  0  0  0  0  0  0  0  0  0  0
  -24.0425   25.3081  -15.2894 H   0  0  0  0  0  0  0  0  0  0  0  0
  -25.4697   25.1820  -17.0972 H   0  0  0  0  0  0  0  0  0  0  0  0
  -22.0901   27.3921  -17.9231 H   0  0  0  0  0  0  0  0  0  0  0  0
  -21.4942   29.6248  -17.4290 H   0  0  0  0  0  0  0  0  0  0  0  0
  -20.2069   29.2726  -18.6312 H   0  0  0  0  0  0  0  0  0  0  0  0
  -19.5816   30.1059  -16.1774 H   0  0  0  0  0  0  0  0  0  0  0  0
  -18.6114   28.8296  -16.9878 H   0  0  0  0  0  0  0  0  0  0  0  0
  -19.1244   27.6314  -15.0671 H   0  0  0  0  0  0  0  0  0  0  0  0
  -20.6065   28.5928  -14.7414 H   0  0  0  0  0  0  0  0  0  0  0  0
  -19.5965   24.5753  -20.2902 H   0  0  0  0  0  0  0  0  0  0  0  0
  -21.1404   23.8586  -21.8855 H   0  0  0  0  0  0  0  0  0  0  0  0
  -21.3576   25.5150  -22.5456 H   0  0  0  0  0  0  0  0  0  0  0  0
  -22.6835   24.2004  -20.1650 H   0  0  0  0  0  0  0  0  0  0  0  0
  -23.3981   25.2430  -21.4414 H   0  0  0  0  0  0  0  0  0  0  0  0
  -22.5219   27.2133  -20.4965 H   0  0  0  0  0  0  0  0  0  0  0  0
  -22.8306   26.2451  -19.0153 H   0  0  0  0  0  0  0  0  0  0  0  0
  -17.7692   24.8193  -21.3356 H   0  0  0  0  0  0  0  0  0  0  0  0
  -17.3646   27.1308  -23.1542 H   0  0  0  0  0  0  0  0  0  0  0  0
  -16.4664   27.8161  -20.9754 H   0  0  0  0  0  0  0  0  0  0  0  0
  -15.1511   27.5595  -22.1716 H   0  0  0  0  0  0  0  0  0  0  0  0
  -14.6214   25.4048  -21.1910 H   0  0  0  0  0  0  0  0  0  0  0  0
  -16.0118   25.5412  -20.0620 H   0  0  0  0  0  0  0  0  0  0  0  0
  -12.6663   27.9122  -19.4708 H   0  0  0  0  0  0  0  0  0  0  0  0
  -13.1066   27.4179  -21.0713 H   0  0  0  0  0  0  0  0  0  0  0  0
  -15.1843   26.7985  -24.3400 H   0  0  0  0  0  0  0  0  0  0  0  0
  -14.8870   23.8708  -24.8390 H   0  0  0  0  0  0  0  0  0  0  0  0
  -13.7883   25.6443  -26.9071 H   0  0  0  0  0  0  0  0  0  0  0  0
  -15.5575   25.8412  -26.6666 H   0  0  0  0  0  0  0  0  0  0  0  0
  -15.8617   23.4008  -26.9311 H   0  0  0  0  0  0  0  0  0  0  0  0
  -14.0932   23.2098  -27.1809 H   0  0  0  0  0  0  0  0  0  0  0  0
  -14.2389   24.9408  -30.4190 H   0  0  0  0  0  0  0  0  0  0  0  0
  -13.3574   25.0704  -28.9337 H   0  0  0  0  0  0  0  0  0  0  0  0
  -12.9270   22.9784  -24.8636 H   0  0  0  0  0  0  0  0  0  0  0  0
  -10.5660   24.6634  -24.1742 H   0  0  0  0  0  0  0  0  0  0  0  0
  -11.1002   21.8683  -23.0740 H   0  0  0  0  0  0  0  0  0  0  0  0
  -12.8496   23.5768  -22.3818 H   0  0  0  0  0  0  0  0  0  0  0  0
  -11.5232   24.4964  -21.5933 H   0  0  0  0  0  0  0  0  0  0  0  0
   -8.7481   22.6238  -23.1474 H   0  0  0  0  0  0  0  0  0  0  0  0
   -9.3493   22.4627  -21.4625 H   0  0  0  0  0  0  0  0  0  0  0  0
   -9.1941   24.0891  -22.2091 H   0  0  0  0  0  0  0  0  0  0  0  0
  -12.7454   23.1240  -19.9829 H   0  0  0  0  0  0  0  0  0  0  0  0
  -11.0449   22.5707  -20.1520 H   0  0  0  0  0  0  0  0  0  0  0  0
  -12.3713   21.6511  -20.9405 H   0  0  0  0  0  0  0  0  0  0  0  0
   -9.1252   24.4903  -25.7629 H   0  0  0  0  0  0  0  0  0  0  0  0
   -9.0762   21.9448  -27.3226 H   0  0  0  0  0  0  0  0  0  0  0  0
   -8.2831   23.3255  -29.2395 H   0  0  0  0  0  0  0  0  0  0  0  0
   -8.5074   24.7978  -28.2351 H   0  0  0  0  0  0  0  0  0  0  0  0
  1  2  1  0  0  0  0
  1108  1  0  0  0  0
  1109  1  0  0  0  0
  1110  1  0  0  0  0
  2  3  1  0  0  0  0
  2  5  1  0  0  0  0
  2111  1  1  0  0  0
  3  4  2  0  0  0  0
  3  7  1  0  0  0  0
  5  6  1  0  0  0  0
  5112  1  0  0  0  0
  5113  1  0  0  0  0
  6106  1  0  0  0  0
  7  8  1  0  0  0  0
  7114  1  0  0  0  0
  8  9  1  0  0  0  0
  8 20  1  0  0  0  0
  8115  1  6  0  0  0
  9 10  1  0  0  0  0
  9116  1  0  0  0  0
  9117  1  0  0  0  0
 10 11  1  0  0  0  0
 10 15  2  0  0  0  0
 11 12  2  0  0  0  0
 11 13  1  0  0  0  0
 12 19  1  0  0  0  0
 12118  1  0  0  0  0
 13 14  1  0  0  0  0
 13 16  2  0  0  0  0
 14 15  1  0  0  0  0
 14119  1  0  0  0  0
 15120  1  0  0  0  0
 16 17  1  0  0  0  0
 16121  1  0  0  0  0
 17 18  1  0  0  0  0
 17 19  2  0  0  0  0
 19122  1  0  0  0  0
 20 21  2  0  0  0  0
 20 22  1  0  0  0  0
 22 23  1  0  0  0  0
 22123  1  0  0  0  0
 23 24  1  0  0  0  0
 23 26  1  0  0  0  0
 23124  1  1  0  0  0
 24 25  2  0  0  0  0
 24 29  1  0  0  0  0
 26 27  1  0  0  0  0
 26 28  1  0  0  0  0
 26125  1  6  0  0  0
 27126  1  0  0  0  0
 28127  1  0  0  0  0
 28128  1  0  0  0  0
 28129  1  0  0  0  0
 29 30  1  0  0  0  0
 29130  1  0  0  0  0
 30 31  1  0  0  0  0
 30 33  1  0  0  0  0
 30131  1  1  0  0  0
 31 32  2  0  0  0  0
 31 36  1  0  0  0  0
 33 34  1  0  0  0  0
 33 35  1  0  0  0  0
 33132  1  1  0  0  0
 34133  1  0  0  0  0
 35134  1  0  0  0  0
 35135  1  0  0  0  0
 35136  1  0  0  0  0
 36 37  1  0  0  0  0
 36137  1  0  0  0  0
 37 38  1  0  0  0  0
 37 40  1  0  0  0  0
 37138  1  6  0  0  0
 38 39  2  0  0  0  0
 38 47  1  0  0  0  0
 40 41  1  0  0  0  0
 40139  1  0  0  0  0
 40140  1  0  0  0  0
 41 42  1  0  0  0  0
 41141  1  0  0  0  0
 41142  1  0  0  0  0
 42 43  1  0  0  0  0
 42143  1  0  0  0  0
 42144  1  0  0  0  0
 43 44  1  0  0  0  0
 43145  1  0  0  0  0
 44 45  1  0  0  0  0
 44 46  1  0  0  0  0
 45146  1  0  0  0  0
 45147  1  0  0  0  0
 46148  1  0  0  0  0
 46149  1  0  0  0  0
 47 48  1  0  0  0  0
 47150  1  0  0  0  0
 48 49  1  0  0  0  0
 48 51  1  0  0  0  0
 48151  1  1  0  0  0
 49 50  2  0  0  0  0
 49 55  1  0  0  0  0
 51 52  1  0  0  0  0
 51152  1  0  0  0  0
 51153  1  0  0  0  0
 52 53  1  0  0  0  0
 52154  1  0  0  0  0
 52155  1  0  0  0  0
 53 54  1  0  0  0  0
 54156  1  0  0  0  0
 54157  1  0  0  0  0
 54158  1  0  0  0  0
 55 56  1  0  0  0  0
 55159  1  0  0  0  0
 56 57  1  0  0  0  0
 56 59  1  0  0  0  0
 56160  1  6  0  0  0
 57 58  2  0  0  0  0
 57 61  1  0  0  0  0
 59 60  1  0  0  0  0
 59161  1  0  0  0  0
 59162  1  0  0  0  0
 60163  1  0  0  0  0
 61 62  1  0  0  0  0
 61 67  1  0  0  0  0
 62 63  1  0  0  0  0
 62 65  1  0  0  0  0
 62164  1  6  0  0  0
 63 64  2  0  0  0  0
 63 68  1  0  0  0  0
 65 66  1  0  0  0  0
 65165  1  0  0  0  0
 65166  1  0  0  0  0
 66 67  1  0  0  0  0
 66167  1  0  0  0  0
 66168  1  0  0  0  0
 67169  1  0  0  0  0
 67170  1  0  0  0  0
 68 69  1  0  0  0  0
 68 74  1  0  0  0  0
 69 70  1  0  0  0  0
 69 72  1  0  0  0  0
 69171  1  1  0  0  0
 70 71  2  0  0  0  0
 70 75  1  0  0  0  0
 72 73  1  0  0  0  0
 72172  1  0  0  0  0
 72173  1  0  0  0  0
 73 74  1  0  0  0  0
 73174  1  0  0  0  0
 73175  1  0  0  0  0
 74176  1  0  0  0  0
 74177  1  0  0  0  0
 75 76  1  0  0  0  0
 75178  1  0  0  0  0
 76 77  1  0  0  0  0
 76 79  1  0  0  0  0
 76179  1  6  0  0  0
 77 78  2  0  0  0  0
 77 84  1  0  0  0  0
 79 80  1  0  0  0  0
 79180  1  0  0  0  0
 79181  1  0  0  0  0
 80 81  1  0  0  0  0
 80182  1  0  0  0  0
 80183  1  0  0  0  0
 81 82  2  0  0  0  0
 81 83  1  0  0  0  0
 83184  1  0  0  0  0
 83185  1  0  0  0  0
 84 85  1  0  0  0  0
 84186  1  0  0  0  0
 85 86  1  0  0  0  0
 85 88  1  0  0  0  0
 85187  1  1  0  0  0
 86 87  2  0  0  0  0
 86 93  1  0  0  0  0
 88 89  1  0  0  0  0
 88188  1  0  0  0  0
 88189  1  0  0  0  0
 89 90  1  0  0  0  0
 89190  1  0  0  0  0
 89191  1  0  0  0  0
 90 91  2  0  0  0  0
 90 92  1  0  0  0  0
 92192  1  0  0  0  0
 92193  1  0  0  0  0
 93 94  1  0  0  0  0
 93194  1  0  0  0  0
 94 95  1  0  0  0  0
 94 97  1  0  0  0  0
 94195  1  1  0  0  0
 95 96  2  0  0  0  0
 95101  1  0  0  0  0
 97 98  1  0  0  0  0
 97 99  1  0  0  0  0
 97196  1  6  0  0  0
 98100  1  0  0  0  0
 98197  1  0  0  0  0
 98198  1  0  0  0  0
 99199  1  0  0  0  0
 99200  1  0  0  0  0
 99201  1  0  0  0  0
100202  1  0  0  0  0
100203  1  0  0  0  0
100204  1  0  0  0  0
101102  1  0  0  0  0
101205  1  0  0  0  0
102103  1  0  0  0  0
102105  1  0  0  0  0
102206  1  6  0  0  0
103104  1  0  0  0  0
103107  2  0  0  0  0
105106  1  0  0  0  0
105207  1  0  0  0  0
105208  1  0  0  0  0
M  CHG  2   1   1 104  -1
M  END
