4z5w_ligand
 OpenBabel08222323333D

101102  0  0  1  0  0  0  0  0999 V2000
  -59.7560   32.8820  -14.3150 N   0  3  0  0  0  0  0  0  0  0  0  0
  -60.0300   33.2320  -12.9310 C   0  0  1  0  0  0  0  0  0  0  0  0
  -61.4510   33.7970  -12.8190 C   0  0  0  0  0  0  0  0  0  0  0  0
  -62.5290   32.8600  -13.3090 C   0  0  0  0  0  0  0  0  0  0  0  0
  -63.1420   31.9780  -12.4390 C   0  0  0  0  0  0  0  0  0  0  0  0
  -62.9370   32.8590  -14.6380 C   0  0  0  0  0  0  0  0  0  0  0  0
  -64.1290   31.1190  -12.8690 C   0  0  0  0  0  0  0  0  0  0  0  0
  -63.9280   31.9960  -15.0830 C   0  0  0  0  0  0  0  0  0  0  0  0
  -64.5250   31.1300  -14.1850 C   0  0  0  0  0  0  0  0  0  0  0  0
  -65.4610   30.2910  -14.5350 O   0  0  0  0  0  0  0  0  0  0  0  0
  -66.4290   30.4980  -15.8130 S   0  0  0  0  0  0  0  0  0  0  0  0
  -65.6900   30.0300  -17.0100 O   0  0  0  0  0  1  0  0  0  0  0  0
  -66.8030   31.9830  -15.9830 O   0  0  0  0  0  1  0  0  0  0  0  0
  -67.6950   29.6410  -15.6010 O   0  0  0  0  0  1  0  0  0  0  0  0
  -59.8270   32.0280  -12.0180 C   0  0  0  0  0  0  0  0  0  0  0  0
  -59.5750   30.9190  -12.4860 O   0  0  0  0  0  0  0  0  0  0  0  0
  -59.9420   32.2670  -10.7160 N   0  0  0  0  0  0  0  0  0  0  0  0
  -59.7880   31.2370   -9.7030 C   0  0  2  0  0  0  0  0  0  0  0  0
  -61.1490   30.8530   -9.1270 C   0  0  0  0  0  0  0  0  0  0  0  0
  -61.9930   31.7150   -8.8600 O   0  0  0  0  0  0  0  0  0  0  0  0
  -58.8470   31.7280   -8.5760 C   0  0  2  0  0  0  0  0  0  0  0  0
  -57.4730   32.0750   -9.1600 C   0  0  0  0  0  0  0  0  0  0  0  0
  -58.7210   30.7040   -7.4790 C   0  0  0  0  0  0  0  0  0  0  0  0
  -56.5710   32.8600   -8.2180 C   0  0  0  0  0  0  0  0  0  0  0  0
  -61.3580   29.5530   -8.9450 N   0  0  0  0  0  0  0  0  0  0  0  0
  -62.5580   29.0240   -8.2980 C   0  0  1  0  0  0  0  0  0  0  0  0
  -63.5570   28.5180   -9.3490 C   0  0  0  0  0  0  0  0  0  0  0  0
  -63.0850   27.3490  -10.2000 C   0  0  0  0  0  0  0  0  0  0  0  0
  -63.4600   26.0430   -9.8960 C   0  0  0  0  0  0  0  0  0  0  0  0
  -62.2700   27.5530  -11.3170 C   0  0  0  0  0  0  0  0  0  0  0  0
  -63.0410   24.9780  -10.6820 C   0  0  0  0  0  0  0  0  0  0  0  0
  -61.8470   26.5000  -12.0990 C   0  0  0  0  0  0  0  0  0  0  0  0
  -62.2270   25.2100  -11.7870 C   0  0  0  0  0  0  0  0  0  0  0  0
  -61.7960   24.2120  -12.5320 O   0  0  0  0  0  0  0  0  0  0  0  0
  -62.7040   23.5780  -13.7050 S   0  0  0  0  0  0  0  0  0  0  0  0
  -62.9910   24.6700  -14.6590 O   0  0  0  0  0  1  0  0  0  0  0  0
  -61.9430   22.4700  -14.4490 O   0  0  0  0  0  1  0  0  0  0  0  0
  -64.0000   22.9970  -13.1190 O   0  0  0  0  0  1  0  0  0  0  0  0
  -62.0980   27.9240   -7.3390 C   0  0  0  0  0  0  0  0  0  0  0  0
  -60.9060   27.6030   -7.3330 O   0  0  0  0  0  0  0  0  0  0  0  0
  -62.9990   27.3890   -6.5140 N   0  0  0  0  0  0  0  0  0  0  0  0
  -62.7150   26.1260   -5.8320 C   0  0  2  0  0  0  0  0  0  0  0  0
  -63.7750   25.1180   -6.2190 C   0  0  0  0  0  0  0  0  0  0  0  0
  -64.7290   25.4590   -6.8880 O   0  0  0  0  0  0  0  0  0  0  0  0
  -62.6370   26.2390   -4.2820 C   0  0  2  0  0  0  0  0  0  0  0  0
  -63.9450   26.4360   -3.7270 O   0  0  0  0  0  0  0  0  0  0  0  0
  -61.6870   27.3530   -3.8520 C   0  0  0  0  0  0  0  0  0  0  0  0
  -63.6210   23.8740   -5.7970 N   0  0  0  0  0  0  0  0  0  0  0  0
  -64.6160   22.8620   -6.1380 C   0  0  2  0  0  0  0  0  0  0  0  0
  -64.4580   21.6260   -5.2770 C   0  0  0  0  0  0  0  0  0  0  0  0
  -65.2440   20.6850   -5.3820 O   0  5  0  0  0  0  0  0  0  0  0  0
  -64.5360   22.4730   -7.6250 C   0  0  0  0  0  0  0  0  0  0  0  0
  -63.2460   21.7850   -8.0360 C   0  0  0  0  0  0  0  0  0  0  0  0
  -63.2610   21.3400   -9.4920 C   0  0  0  0  0  0  0  0  0  0  0  0
  -64.2520   20.7930   -9.9790 O   0  0  0  0  0  0  0  0  0  0  0  0
  -62.1620   21.5820  -10.1920 N   0  0  0  0  0  0  0  0  0  0  0  0
  -63.5220   21.5420   -4.4890 O   0  0  0  0  0  0  0  0  0  0  0  0
  -59.8960   33.6908  -14.9001 H   0  0  0  0  0  0  0  0  0  0  0  0
  -60.3799   32.1453  -14.6051 H   0  0  0  0  0  0  0  0  0  0  0  0
  -58.8021   32.5673  -14.3995 H   0  0  0  0  0  0  0  0  0  0  0  0
  -59.3220   34.0155  -12.6230 H   0  0  0  0  0  0  0  0  0  0  0  0
  -61.5023   34.7222  -13.4118 H   0  0  0  0  0  0  0  0  0  0  0  0
  -61.6485   34.0275  -11.7617 H   0  0  0  0  0  0  0  0  0  0  0  0
  -62.8400   31.9621  -11.3980 H   0  0  0  0  0  0  0  0  0  0  0  0
  -62.4730   33.5440  -15.3384 H   0  0  0  0  0  0  0  0  0  0  0  0
  -64.5937   30.4339  -12.1691 H   0  0  0  0  0  0  0  0  0  0  0  0
  -64.2312   32.0004  -16.1237 H   0  0  0  0  0  0  0  0  0  0  0  0
  -60.1442   33.2003  -10.4192 H   0  0  0  0  0  0  0  0  0  0  0  0
  -59.3410   30.3477  -10.1713 H   0  0  0  0  0  0  0  0  0  0  0  0
  -59.2787   32.6414   -8.1408 H   0  0  0  0  0  0  0  0  0  0  0  0
  -57.6268   32.6750  -10.0690 H   0  0  0  0  0  0  0  0  0  0  0  0
  -56.9632   31.1362   -9.4221 H   0  0  0  0  0  0  0  0  0  0  0  0
  -59.7185   30.4725   -7.0772 H   0  0  0  0  0  0  0  0  0  0  0  0
  -58.0858   31.1041   -6.6750 H   0  0  0  0  0  0  0  0  0  0  0  0
  -58.2668   29.7874   -7.8834 H   0  0  0  0  0  0  0  0  0  0  0  0
  -55.6114   33.0648   -8.7151 H   0  0  0  0  0  0  0  0  0  0  0  0
  -56.3931   32.2718   -7.3057 H   0  0  0  0  0  0  0  0  0  0  0  0
  -57.0567   33.8106   -7.9526 H   0  0  0  0  0  0  0  0  0  0  0  0
  -60.6638   28.9081   -9.2647 H   0  0  0  0  0  0  0  0  0  0  0  0
  -63.0433   29.8231   -7.7183 H   0  0  0  0  0  0  0  0  0  0  0  0
  -63.7900   29.3547  -10.0240 H   0  0  0  0  0  0  0  0  0  0  0  0
  -64.4712   28.2055   -8.8232 H   0  0  0  0  0  0  0  0  0  0  0  0
  -64.0883   25.8550   -9.0329 H   0  0  0  0  0  0  0  0  0  0  0  0
  -61.9642   28.5608  -11.5736 H   0  0  0  0  0  0  0  0  0  0  0  0
  -63.3472   23.9678  -10.4356 H   0  0  0  0  0  0  0  0  0  0  0  0
  -61.2151   26.6849  -12.9602 H   0  0  0  0  0  0  0  0  0  0  0  0
  -63.8717   27.8526   -6.3610 H   0  0  0  0  0  0  0  0  0  0  0  0
  -61.7388   25.7646   -6.1876 H   0  0  0  0  0  0  0  0  0  0  0  0
  -62.2413   25.2895   -3.8923 H   0  0  0  0  0  0  0  0  0  0  0  0
  -63.8798   26.5029   -2.7816 H   0  0  0  0  0  0  0  0  0  0  0  0
  -61.6560   27.4048   -2.7537 H   0  0  0  0  0  0  0  0  0  0  0  0
  -62.0419   28.3133   -4.2544 H   0  0  0  0  0  0  0  0  0  0  0  0
  -60.6783   27.1440   -4.2378 H   0  0  0  0  0  0  0  0  0  0  0  0
  -62.8243   23.6272   -5.2453 H   0  0  0  0  0  0  0  0  0  0  0  0
  -65.6117   23.2891   -5.9478 H   0  0  0  0  0  0  0  0  0  0  0  0
  -64.6407   23.3894   -8.2243 H   0  0  0  0  0  0  0  0  0  0  0  0
  -65.3717   21.7928   -7.8460 H   0  0  0  0  0  0  0  0  0  0  0  0
  -63.0991   20.9008   -7.3984 H   0  0  0  0  0  0  0  0  0  0  0  0
  -62.4105   22.4854   -7.8898 H   0  0  0  0  0  0  0  0  0  0  0  0
  -62.1123   21.3126  -11.1538 H   0  0  0  0  0  0  0  0  0  0  0  0
  -61.3824   22.0340   -9.7584 H   0  0  0  0  0  0  0  0  0  0  0  0
  1  2  1  0  0  0  0
  1 58  1  0  0  0  0
  1 59  1  0  0  0  0
  1 60  1  0  0  0  0
  2  3  1  0  0  0  0
  2 15  1  0  0  0  0
  2 61  1  1  0  0  0
  3  4  1  0  0  0  0
  3 62  1  0  0  0  0
  3 63  1  0  0  0  0
  4  5  2  0  0  0  0
  4  6  1  0  0  0  0
  5  7  1  0  0  0  0
  5 64  1  0  0  0  0
  6  8  2  0  0  0  0
  6 65  1  0  0  0  0
  7  9  2  0  0  0  0
  7 66  1  0  0  0  0
  8  9  1  0  0  0  0
  8 67  1  0  0  0  0
  9 10  1  0  0  0  0
 10 11  1  0  0  0  0
 11 12  1  0  0  0  0
 11 13  1  0  0  0  0
 11 14  1  0  0  0  0
 15 16  2  0  0  0  0
 15 17  1  0  0  0  0
 17 18  1  0  0  0  0
 17 68  1  0  0  0  0
 18 19  1  0  0  0  0
 18 21  1  0  0  0  0
 18 69  1  6  0  0  0
 19 20  2  0  0  0  0
 19 25  1  0  0  0  0
 21 22  1  0  0  0  0
 21 23  1  0  0  0  0
 21 70  1  1  0  0  0
 22 24  1  0  0  0  0
 22 71  1  0  0  0  0
 22 72  1  0  0  0  0
 23 73  1  0  0  0  0
 23 74  1  0  0  0  0
 23 75  1  0  0  0  0
 24 76  1  0  0  0  0
 24 77  1  0  0  0  0
 24 78  1  0  0  0  0
 25 26  1  0  0  0  0
 25 79  1  0  0  0  0
 26 27  1  0  0  0  0
 26 39  1  0  0  0  0
 26 80  1  1  0  0  0
 27 28  1  0  0  0  0
 27 81  1  0  0  0  0
 27 82  1  0  0  0  0
 28 29  2  0  0  0  0
 28 30  1  0  0  0  0
 29 31  1  0  0  0  0
 29 83  1  0  0  0  0
 30 32  2  0  0  0  0
 30 84  1  0  0  0  0
 31 33  2  0  0  0  0
 31 85  1  0  0  0  0
 32 33  1  0  0  0  0
 32 86  1  0  0  0  0
 33 34  1  0  0  0  0
 34 35  1  0  0  0  0
 35 36  1  0  0  0  0
 35 37  1  0  0  0  0
 35 38  1  0  0  0  0
 39 40  2  0  0  0  0
 39 41  1  0  0  0  0
 41 42  1  0  0  0  0
 41 87  1  0  0  0  0
 42 43  1  0  0  0  0
 42 45  1  0  0  0  0
 42 88  1  6  0  0  0
 43 44  2  0  0  0  0
 43 48  1  0  0  0  0
 45 46  1  0  0  0  0
 45 47  1  0  0  0  0
 45 89  1  1  0  0  0
 46 90  1  0  0  0  0
 47 91  1  0  0  0  0
 47 92  1  0  0  0  0
 47 93  1  0  0  0  0
 48 49  1  0  0  0  0
 48 94  1  0  0  0  0
 49 50  1  0  0  0  0
 49 52  1  0  0  0  0
 49 95  1  1  0  0  0
 50 51  1  0  0  0  0
 50 57  2  0  0  0  0
 52 53  1  0  0  0  0
 52 96  1  0  0  0  0
 52 97  1  0  0  0  0
 53 54  1  0  0  0  0
 53 98  1  0  0  0  0
 53 99  1  0  0  0  0
 54 55  2  0  0  0  0
 54 56  1  0  0  0  0
 56100  1  0  0  0  0
 56101  1  0  0  0  0
M  CHG  2   1   1  51  -1
M  END
