5a3n_ligand
 OpenBabel08222323333D

 49 49  0  0  0  0  0  0  0  0999 V2000
   88.3210   63.3920   14.2630 N   0  0  0  0  0  0  0  0  0  0  0  0
   87.7930   64.6800   14.5060 C   0  0  0  0  0  0  0  0  0  0  0  0
   86.6070   65.1870   13.7140 C   0  0  0  0  0  0  0  0  0  0  0  0
   86.4310   66.6070   13.5910 C   0  0  0  0  0  0  0  0  0  0  0  0
   85.3370   67.1150   12.8840 C   0  0  0  0  0  0  0  0  0  0  0  0
   84.4470   66.2850   12.3560 N   0  0  0  0  0  0  0  0  0  0  0  0
   84.5980   64.9210   12.4590 C   0  0  0  0  0  0  0  0  0  0  0  0
   83.4520   64.1130   11.8160 C   0  0  0  0  0  0  0  0  0  0  0  0
   82.2350   64.9130   11.9730 N   0  3  0  0  0  0  0  0  0  0  0  0
   81.6480   64.7050   13.2860 C   0  0  0  0  0  0  0  0  0  0  0  0
   80.6610   63.5620   13.2520 C   0  0  0  0  0  0  0  0  0  0  0  0
   79.9590   63.0970   14.4360 N   0  0  0  0  0  0  0  0  0  0  0  0
   80.1810   63.6780   15.7470 C   0  0  0  0  0  0  0  0  0  0  0  0
   79.2770   64.8980   15.9530 C   0  0  0  0  0  0  0  0  0  0  0  0
   78.9740   61.9870   14.3130 C   0  0  0  0  0  0  0  0  0  0  0  0
   79.7230   60.6570   14.0830 C   0  0  0  0  0  0  0  0  0  0  0  0
   79.0760   59.7680   13.1680 N   0  3  0  0  0  0  0  0  0  0  0  0
   79.7290   58.4070   13.2010 C   0  0  0  0  0  0  0  0  0  0  0  0
   78.9890   60.2650   11.7620 C   0  0  0  0  0  0  0  0  0  0  0  0
   80.4380   63.0160   12.1370 O   0  0  0  0  0  0  0  0  0  0  0  0
   85.6620   64.3290   13.1590 C   0  0  0  0  0  0  0  0  0  0  0  0
   88.2690   65.3850   15.4050 O   0  0  0  0  0  0  0  0  0  0  0  0
   89.1048   63.0651   14.7910 H   0  0  0  0  0  0  0  0  0  0  0  0
   87.9108   62.8074   13.5630 H   0  0  0  0  0  0  0  0  0  0  0  0
   87.1453   67.2839   14.0456 H   0  0  0  0  0  0  0  0  0  0  0  0
   85.2162   68.1859   12.7674 H   0  0  0  0  0  0  0  0  0  0  0  0
   83.3379   63.1449   12.3257 H   0  0  0  0  0  0  0  0  0  0  0  0
   83.6595   63.9435   10.7491 H   0  0  0  0  0  0  0  0  0  0  0  0
   81.5686   64.6434   11.2664 H   0  0  0  0  0  0  0  0  0  0  0  0
   82.4642   65.8885   11.8640 H   0  0  0  0  0  0  0  0  0  0  0  0
   81.1280   65.6224   13.5990 H   0  0  0  0  0  0  0  0  0  0  0  0
   82.4462   64.4720   14.0061 H   0  0  0  0  0  0  0  0  0  0  0  0
   81.2329   63.9884   15.8321 H   0  0  0  0  0  0  0  0  0  0  0  0
   79.9567   62.9268   16.5186 H   0  0  0  0  0  0  0  0  0  0  0  0
   79.4587   65.3247   16.9505 H   0  0  0  0  0  0  0  0  0  0  0  0
   78.2236   64.5918   15.8715 H   0  0  0  0  0  0  0  0  0  0  0  0
   79.4998   65.6533   15.1850 H   0  0  0  0  0  0  0  0  0  0  0  0
   78.3052   62.1830   13.4619 H   0  0  0  0  0  0  0  0  0  0  0  0
   78.3812   61.9188   15.2371 H   0  0  0  0  0  0  0  0  0  0  0  0
   79.8199   60.1442   15.0513 H   0  0  0  0  0  0  0  0  0  0  0  0
   80.7235   60.8887   13.6890 H   0  0  0  0  0  0  0  0  0  0  0  0
   78.1287   59.6582   13.4946 H   0  0  0  0  0  0  0  0  0  0  0  0
   79.2188   57.7383   12.4922 H   0  0  0  0  0  0  0  0  0  0  0  0
   79.6560   57.9898   14.2162 H   0  0  0  0  0  0  0  0  0  0  0  0
   80.7879   58.5014   12.9186 H   0  0  0  0  0  0  0  0  0  0  0  0
   78.5119   61.2561   11.7523 H   0  0  0  0  0  0  0  0  0  0  0  0
   78.3904   59.5641   11.1617 H   0  0  0  0  0  0  0  0  0  0  0  0
   80.0006   60.3409   11.3366 H   0  0  0  0  0  0  0  0  0  0  0  0
   85.7435   63.2530   13.2623 H   0  0  0  0  0  0  0  0  0  0  0  0
  1  2  1  0  0  0  0
  1 23  1  0  0  0  0
  1 24  1  0  0  0  0
  2  3  1  0  0  0  0
  2 22  2  0  0  0  0
  3  4  2  0  0  0  0
  3 21  1  0  0  0  0
  4  5  1  0  0  0  0
  4 25  1  0  0  0  0
  5  6  2  0  0  0  0
  5 26  1  0  0  0  0
  6  7  1  0  0  0  0
  7  8  1  0  0  0  0
  7 21  2  0  0  0  0
  8  9  1  0  0  0  0
  8 27  1  0  0  0  0
  8 28  1  0  0  0  0
  9 10  1  0  0  0  0
  9 29  1  0  0  0  0
  9 30  1  0  0  0  0
 10 11  1  0  0  0  0
 10 31  1  0  0  0  0
 10 32  1  0  0  0  0
 11 12  1  0  0  0  0
 11 20  2  0  0  0  0
 12 13  1  0  0  0  0
 12 15  1  0  0  0  0
 13 14  1  0  0  0  0
 13 33  1  0  0  0  0
 13 34  1  0  0  0  0
 14 35  1  0  0  0  0
 14 36  1  0  0  0  0
 14 37  1  0  0  0  0
 15 16  1  0  0  0  0
 15 38  1  0  0  0  0
 15 39  1  0  0  0  0
 16 17  1  0  0  0  0
 16 40  1  0  0  0  0
 16 41  1  0  0  0  0
 17 18  1  0  0  0  0
 17 19  1  0  0  0  0
 17 42  1  0  0  0  0
 18 43  1  0  0  0  0
 18 44  1  0  0  0  0
 18 45  1  0  0  0  0
 19 46  1  0  0  0  0
 19 47  1  0  0  0  0
 19 48  1  0  0  0  0
 21 49  1  0  0  0  0
M  CHG  2   9   1  17   1
M  END
