5a3w_ligand
 OpenBabel08222323333D

 15 15  0  0  0  0  0  0  0  0999 V2000
   88.4210   63.3640   14.0130 O   0  5  0  0  0  0  0  0  0  0  0  0
   87.9330   64.5050   14.3700 C   0  0  0  0  0  0  0  0  0  0  0  0
   88.5150   65.1990   15.2740 O   0  0  0  0  0  0  0  0  0  0  0  0
   86.6610   65.0620   13.7100 C   0  0  0  0  0  0  0  0  0  0  0  0
   86.5300   66.4500   13.4930 C   0  0  0  0  0  0  0  0  0  0  0  0
   85.3780   66.9480   12.8780 C   0  0  0  0  0  0  0  0  0  0  0  0
   85.6040   64.1930   13.3050 C   0  0  0  0  0  0  0  0  0  0  0  0
   84.5310   64.7920   12.7190 C   0  0  0  0  0  0  0  0  0  0  0  0
   84.4230   66.1180   12.5210 N   0  0  0  0  0  0  0  0  0  0  0  0
   83.3320   63.9510   12.2990 C   0  0  0  0  0  0  0  0  0  0  0  0
   82.2430   64.5810   12.0990 O   0  5  0  0  0  0  0  0  0  0  0  0
   83.4190   62.7320   12.2130 O   0  0  0  0  0  0  0  0  0  0  0  0
   87.3187   67.1266   13.8017 H   0  0  0  0  0  0  0  0  0  0  0  0
   85.2726   68.0115   12.6966 H   0  0  0  0  0  0  0  0  0  0  0  0
   85.6525   63.1205   13.4549 H   0  0  0  0  0  0  0  0  0  0  0  0
  1  2  1  0  0  0  0
  2  3  2  0  0  0  0
  2  4  1  0  0  0  0
  4  5  2  0  0  0  0
  4  7  1  0  0  0  0
  5  6  1  0  0  0  0
  5 13  1  0  0  0  0
  6  9  2  0  0  0  0
  6 14  1  0  0  0  0
  7  8  2  0  0  0  0
  7 15  1  0  0  0  0
  8  9  1  0  0  0  0
  8 10  1  0  0  0  0
 10 11  1  0  0  0  0
 10 12  2  0  0  0  0
M  CHG  2   1  -1  11  -1
M  END
