5agr_ligand
 OpenBabel08222323333D

 61 66  0  0  1  0  0  0  0  0999 V2000
   15.5730    5.6810   11.1650 B   0  0  2  0  0  0  0  0  0  0  0  0
   22.3310    4.6460    9.9520 P   0  0  0  0  0  0  0  0  0  0  0  0
   20.8540    6.2300   17.9280 N   0  0  0  0  0  0  0  0  0  0  0  0
   14.4340    6.6320   11.2160 O   0  0  0  0  0  0  0  0  0  0  0  0
   20.1330    5.1680   17.5240 C   0  0  0  0  0  0  0  0  0  0  0  0
   19.5080    5.1440   16.3340 N   0  0  0  0  0  0  0  0  0  0  0  0
   19.6060    6.2330   15.5310 C   0  0  0  0  0  0  0  0  0  0  0  0
   20.3350    7.3460   15.9260 C   0  0  0  0  0  0  0  0  0  0  0  0
   20.9640    7.3360   17.1610 C   0  0  0  0  0  0  0  0  0  0  0  0
   21.6820    8.4060   17.5840 N   0  0  0  0  0  0  0  0  0  0  0  0
   20.2450    8.2650   14.9450 N   0  0  0  0  0  0  0  0  0  0  0  0
   19.4910    7.7310   13.9670 C   0  0  0  0  0  0  0  0  0  0  0  0
   19.1000    6.4930   14.3250 N   0  0  0  0  0  0  0  0  0  0  0  0
   18.2110    5.5520   13.5720 C   0  0  1  0  0  0  0  0  0  0  0  0
   13.1460    6.0170   11.0270 C   0  0  1  0  0  0  0  0  0  0  0  0
   13.5070    4.7040   10.4450 C   0  0  0  0  0  0  0  0  0  0  0  0
   14.8680    4.5130   10.5120 C   0  0  0  0  0  0  0  0  0  0  0  0
   12.6240    3.7650    9.8930 C   0  0  0  0  0  0  0  0  0  0  0  0
   13.1640    2.5740    9.4160 C   0  0  0  0  0  0  0  0  0  0  0  0
   14.5420    2.3660    9.4760 C   0  0  0  0  0  0  0  0  0  0  0  0
   15.4080    3.3200   10.0280 C   0  0  0  0  0  0  0  0  0  0  0  0
   23.0030    3.3470   10.2980 O   0  0  0  0  0  1  0  0  0  0  0  0
   17.1740    6.3280   12.7770 C   0  0  2  0  0  0  0  0  0  0  0  0
   16.0400    5.5000   12.5200 O   0  0  0  0  0  0  0  0  0  0  0  0
   21.8480    4.7120    8.5270 O   0  0  0  0  0  1  0  0  0  0  0  0
   17.7720    6.4840   11.3960 C   0  0  2  0  0  0  0  0  0  0  0  0
   16.6540    6.3480   10.5110 O   0  0  0  0  0  0  0  0  0  0  0  0
   12.4810    5.8380   12.3910 C   0  0  0  0  0  0  0  0  0  0  0  0
   13.3450    5.0950   13.3160 N   0  3  0  0  0  0  0  0  0  0  0  0
   16.7510    3.0920   10.0850 O   0  0  0  0  0  0  0  0  0  0  0  0
   17.3010    1.8700    9.5850 C   0  0  0  0  0  0  0  0  0  0  0  0
   18.7920    1.8520    9.8270 C   0  0  0  0  0  0  0  0  0  0  0  0
   23.0450    5.8990   10.3770 O   0  0  0  0  0  0  0  0  0  0  0  0
   18.7600    5.3220   11.3050 C   0  0  2  0  0  0  0  0  0  0  0  0
   18.9030    4.7640   12.6190 O   0  0  0  0  0  0  0  0  0  0  0  0
   20.1250    5.7810   10.8400 C   0  0  0  0  0  0  0  0  0  0  0  0
   20.9900    4.6470   10.8310 O   0  0  0  0  0  0  0  0  0  0  0  0
   20.0538    4.3066   18.1773 H   0  0  0  0  0  0  0  0  0  0  0  0
   21.7577    9.2433   16.9889 H   0  0  0  0  0  0  0  0  0  0  0  0
   22.1516    8.3814   18.5004 H   0  0  0  0  0  0  0  0  0  0  0  0
   19.2361    8.2240   13.0300 H   0  0  0  0  0  0  0  0  0  0  0  0
   17.7120    4.8919   14.2967 H   0  0  0  0  0  0  0  0  0  0  0  0
   12.4996    6.6001   10.3547 H   0  0  0  0  0  0  0  0  0  0  0  0
   11.5589    3.9596    9.8396 H   0  0  0  0  0  0  0  0  0  0  0  0
   12.5162    1.8111    8.9995 H   0  0  0  0  0  0  0  0  0  0  0  0
   14.9539    1.4425    9.0855 H   0  0  0  0  0  0  0  0  0  0  0  0
   16.9076    7.2810   13.2574 H   0  0  0  0  0  0  0  0  0  0  0  0
   18.2776    7.4499   11.2498 H   0  0  0  0  0  0  0  0  0  0  0  0
   11.5389    5.2856   12.2599 H   0  0  0  0  0  0  0  0  0  0  0  0
   12.2685    6.8291   12.8182 H   0  0  0  0  0  0  0  0  0  0  0  0
   12.8786    4.9943   14.2039 H   0  0  0  0  0  0  0  0  0  0  0  0
   14.2092    5.5974   13.4455 H   0  0  0  0  0  0  0  0  0  0  0  0
   13.5406    4.1830   12.9339 H   0  0  0  0  0  0  0  0  0  0  0  0
   17.1040    1.7939    8.5055 H   0  0  0  0  0  0  0  0  0  0  0  0
   16.8352    1.0191   10.1036 H   0  0  0  0  0  0  0  0  0  0  0  0
   19.2145    0.9121    9.4423 H   0  0  0  0  0  0  0  0  0  0  0  0
   18.9892    1.9279   10.9065 H   0  0  0  0  0  0  0  0  0  0  0  0
   19.2580    2.7028    9.3084 H   0  0  0  0  0  0  0  0  0  0  0  0
   18.3719    4.5635   10.6092 H   0  0  0  0  0  0  0  0  0  0  0  0
   20.5170    6.5444   11.5282 H   0  0  0  0  0  0  0  0  0  0  0  0
   20.0521    6.2033    9.8269 H   0  0  0  0  0  0  0  0  0  0  0  0
  1  4  1  1  0  0  0
  1 24  1  0  0  0  0
  1 17  1  0  0  0  0
  2 22  1  0  0  0  0
  2 25  1  0  0  0  0
  2 33  2  0  0  0  0
  4 15  1  0  0  0  0
  5  3  2  0  0  0  0
  5 38  1  0  0  0  0
  6  5  1  0  0  0  0
  7  6  2  0  0  0  0
  7  8  1  0  0  0  0
  8  9  2  0  0  0  0
  9  3  1  0  0  0  0
  9 10  1  0  0  0  0
 10 39  1  0  0  0  0
 10 40  1  0  0  0  0
 11  8  1  0  0  0  0
 12 11  2  0  0  0  0
 12 41  1  0  0  0  0
 13  7  1  0  0  0  0
 13 12  1  0  0  0  0
 14 13  1  0  0  0  0
 14 23  1  0  0  0  0
 14 42  1  1  0  0  0
 15 16  1  0  0  0  0
 15 28  1  0  0  0  0
 15 43  1  6  0  0  0
 16 17  2  0  0  0  0
 16 18  1  0  0  0  0
 17 21  1  0  0  0  0
 18 19  2  0  0  0  0
 18 44  1  0  0  0  0
 19 20  1  0  0  0  0
 19 45  1  0  0  0  0
 20 46  1  0  0  0  0
 21 20  2  0  0  0  0
 21 30  1  0  0  0  0
 23 24  1  0  0  0  0
 23 47  1  1  0  0  0
 26 23  1  0  0  0  0
 26 27  1  0  0  0  0
 26 48  1  6  0  0  0
 27  1  1  0  0  0  0
 28 29  1  0  0  0  0
 28 49  1  0  0  0  0
 28 50  1  0  0  0  0
 29 51  1  0  0  0  0
 29 52  1  0  0  0  0
 29 53  1  0  0  0  0
 30 31  1  0  0  0  0
 31 32  1  0  0  0  0
 31 54  1  0  0  0  0
 31 55  1  0  0  0  0
 32 56  1  0  0  0  0
 32 57  1  0  0  0  0
 32 58  1  0  0  0  0
 34 26  1  0  0  0  0
 34 35  1  0  0  0  0
 34 59  1  6  0  0  0
 35 14  1  0  0  0  0
 36 34  1  0  0  0  0
 36 37  1  0  0  0  0
 36 60  1  0  0  0  0
 36 61  1  0  0  0  0
 37  2  1  0  0  0  0
M  CHG  1  29   1
M  END
