5awu_ligand
 OpenBabel08222323333D

166170  0  0  1  0  0  0  0  0999 V2000
   33.3040   16.0050  115.6230 N   0  3  0  0  0  0  0  0  0  0  0  0
   32.1890   15.6790  114.7360 C   0  0  2  0  0  0  0  0  0  0  0  0
   31.8000   14.2070  114.8030 C   0  0  0  0  0  0  0  0  0  0  0  0
   32.6090   13.3340  114.4940 O   0  0  0  0  0  0  0  0  0  0  0  0
   32.5180   16.0260  113.2830 C   0  0  0  0  0  0  0  0  0  0  0  0
   31.5380   15.3890  112.3250 C   0  0  0  0  0  0  0  0  0  0  0  0
   31.8840   14.2650  111.5870 C   0  0  0  0  0  0  0  0  0  0  0  0
   30.2470   15.8880  112.1910 C   0  0  0  0  0  0  0  0  0  0  0  0
   30.9770   13.6670  110.7300 C   0  0  0  0  0  0  0  0  0  0  0  0
   29.3350   15.3000  111.3380 C   0  0  0  0  0  0  0  0  0  0  0  0
   29.7040   14.1900  110.6100 C   0  0  0  0  0  0  0  0  0  0  0  0
   28.7950   13.6050  109.7540 O   0  0  0  0  0  0  0  0  0  0  0  0
   30.5560   13.9340  115.1800 N   0  0  0  0  0  0  0  0  0  0  0  0
   30.0800   12.5560  115.2610 C   0  0  2  0  0  0  0  0  0  0  0  0
   29.0680   12.2210  114.1680 C   0  0  0  0  0  0  0  0  0  0  0  0
   28.0020   12.8400  114.0810 O   0  0  0  0  0  0  0  0  0  0  0  0
   29.4700   12.2760  116.6280 C   0  0  0  0  0  0  0  0  0  0  0  0
   28.9480   10.8630  116.7470 C   0  0  0  0  0  0  0  0  0  0  0  0
   27.9870   10.6500  117.5070 O   0  5  0  0  0  0  0  0  0  0  0  0
   29.4990    9.9610  116.0810 O   0  0  0  0  0  0  0  0  0  0  0  0
   29.4010   11.2290  113.3300 N   0  0  0  0  0  0  0  0  0  0  0  0
   28.5350   10.8680  112.2010 C   0  0  2  0  0  0  0  0  0  0  0  0
   27.2210   10.2230  112.6330 C   0  0  0  0  0  0  0  0  0  0  0  0
   26.2380   10.2870  111.8870 O   0  0  0  0  0  0  0  0  0  0  0  0
   29.3900    9.8760  111.4000 C   0  0  0  0  0  0  0  0  0  0  0  0
   30.4530    9.4020  112.3480 C   0  0  0  0  0  0  0  0  0  0  0  0
   30.6970   10.5280  113.2940 C   0  0  0  0  0  0  0  0  0  0  0  0
   27.2000    9.6210  113.8200 N   0  0  0  0  0  0  0  0  0  0  0  0
   25.9960    8.9460  114.2980 C   0  0  2  0  0  0  0  0  0  0  0  0
   25.1110    9.8240  115.1720 C   0  0  0  0  0  0  0  0  0  0  0  0
   23.9270    9.5410  115.3200 O   0  0  0  0  0  0  0  0  0  0  0  0
   26.3620    7.6840  115.0750 C   0  0  0  0  0  0  0  0  0  0  0  0
   27.2210    6.7360  114.3080 C   0  0  0  0  0  0  0  0  0  0  0  0
   26.6780    5.9550  113.3070 C   0  0  0  0  0  0  0  0  0  0  0  0
   28.5700    6.6200  114.5830 C   0  0  0  0  0  0  0  0  0  0  0  0
   27.4630    5.0810  112.5810 C   0  0  0  0  0  0  0  0  0  0  0  0
   29.3560    5.7430  113.8610 C   0  0  0  0  0  0  0  0  0  0  0  0
   28.7940    4.9770  112.8540 C   0  0  0  0  0  0  0  0  0  0  0  0
   25.6900   10.8700  115.7570 N   0  0  0  0  0  0  0  0  0  0  0  0
   24.9850   11.7160  116.7230 C   0  0  2  0  0  0  0  0  0  0  0  0
   23.6710   12.2410  116.1540 C   0  0  0  0  0  0  0  0  0  0  0  0
   23.6350   12.7470  115.0300 O   0  0  0  0  0  0  0  0  0  0  0  0
   25.8690   12.8890  117.1690 C   0  0  0  0  0  0  0  0  0  0  0  0
   25.7100   13.2600  118.6370 C   0  0  0  0  0  0  0  0  0  0  0  0
   25.9360   12.0450  119.5420 C   0  0  0  0  0  0  0  0  0  0  0  0
   25.4880   12.3090  120.9800 C   0  0  0  0  0  0  0  0  0  0  0  0
   25.6250   11.1030  121.8530 N   0  3  0  0  0  0  0  0  0  0  0  0
   22.5930   12.1100  116.9260 N   0  0  0  0  0  0  0  0  0  0  0  0
   22.6600   11.5460  118.2640 C   0  0  0  0  0  0  0  0  0  0  0  0
   22.1740   10.1120  118.3750 C   0  0  0  0  0  0  0  0  0  0  0  0
   22.3030    9.4890  119.4320 O   0  0  0  0  0  0  0  0  0  0  0  0
   21.6230    9.5900  117.2800 N   0  0  0  0  0  0  0  0  0  0  0  0
   21.0520    8.2440  117.2470 C   0  0  2  0  0  0  0  0  0  0  0  0
   22.0510    7.1860  117.6910 C   0  0  0  0  0  0  0  0  0  0  0  0
   23.2630    7.3910  117.6320 O   0  0  0  0  0  0  0  0  0  0  0  0
   20.5390    7.9120  115.8430 C   0  0  0  0  0  0  0  0  0  0  0  0
   19.6740    8.9240  115.3540 O   0  0  0  0  0  0  0  0  0  0  0  0
   21.5340    6.0500  118.1390 N   0  0  0  0  0  0  0  0  0  0  0  0
   22.3970    4.9770  118.5990 C   0  0  2  0  0  0  0  0  0  0  0  0
   22.4920    3.8650  117.5660 C   0  0  0  0  0  0  0  0  0  0  0  0
   21.4710    3.3660  117.0830 O   0  0  0  0  0  0  0  0  0  0  0  0
   21.9140    4.4160  119.9350 C   0  0  0  0  0  0  0  0  0  0  0  0
   22.9020    3.4350  120.5400 C   0  0  0  0  0  0  0  0  0  0  0  0
   22.8250    2.2310  120.2180 O   0  5  0  0  0  0  0  0  0  0  0  0
   23.7630    3.8690  121.3330 O   0  0  0  0  0  0  0  0  0  0  0  0
   23.7310    3.4870  117.2200 N   0  0  0  0  0  0  0  0  0  0  0  0
   24.0670    2.4220  116.2660 C   0  0  2  0  0  0  0  0  0  0  0  0
   23.7680    1.0110  116.7890 C   0  0  0  0  0  0  0  0  0  0  0  0
   23.5560    0.0960  115.9920 O   0  0  0  0  0  0  0  0  0  0  0  0
   25.5810    2.5870  116.0700 C   0  0  0  0  0  0  0  0  0  0  0  0
   25.8980    3.9510  116.5530 C   0  0  0  0  0  0  0  0  0  0  0  0
   24.9220    4.2410  117.6420 C   0  0  0  0  0  0  0  0  0  0  0  0
   23.7570    0.8320  118.1050 N   0  0  0  0  0  0  0  0  0  0  0  0
   23.5540   -0.5000  118.6710 C   0  0  2  0  0  0  0  0  0  0  0  0
   22.2320   -0.5870  119.4450 C   0  0  0  0  0  0  0  0  0  0  0  0
   22.2220   -0.7550  120.6650 O   0  0  0  0  0  0  0  0  0  0  0  0
   24.7520   -0.8970  119.5460 C   0  0  0  0  0  0  0  0  0  0  0  0
   26.0930   -0.7260  118.8590 C   0  0  0  0  0  0  0  0  0  0  0  0
   26.5150   -1.6240  117.8820 C   0  0  0  0  0  0  0  0  0  0  0  0
   26.9320    0.3290  119.1900 C   0  0  0  0  0  0  0  0  0  0  0  0
   27.7470   -1.4670  117.2420 C   0  0  0  0  0  0  0  0  0  0  0  0
   28.1640    0.4880  118.5520 C   0  0  0  0  0  0  0  0  0  0  0  0
   28.5670   -0.4120  117.5810 C   0  0  0  0  0  0  0  0  0  0  0  0
   21.1210   -0.4680  118.7200 N   0  0  0  0  0  0  0  0  0  0  0  0
   19.7900   -0.4780  119.3250 C   0  0  2  0  0  0  0  0  0  0  0  0
   18.7560   -1.0830  118.3790 C   0  0  0  0  0  0  0  0  0  0  0  0
   19.0090   -1.2370  117.1830 O   0  5  0  0  0  0  0  0  0  0  0  0
   19.3800    0.9310  119.7280 C   0  0  0  0  0  0  0  0  0  0  0  0
   17.6480   -1.4290  118.7930 O   0  0  0  0  0  0  0  0  0  0  0  0
   33.5219   16.9858  115.5422 H   0  0  0  0  0  0  0  0  0  0  0  0
   34.1106   15.4591  115.3634 H   0  0  0  0  0  0  0  0  0  0  0  0
   33.0484   15.7950  116.5752 H   0  0  0  0  0  0  0  0  0  0  0  0
   31.3231   16.2794  115.0517 H   0  0  0  0  0  0  0  0  0  0  0  0
   33.5308   15.6656  113.0501 H   0  0  0  0  0  0  0  0  0  0  0  0
   32.4800   17.1183  113.1591 H   0  0  0  0  0  0  0  0  0  0  0  0
   32.8805   13.8493  111.6837 H   0  0  0  0  0  0  0  0  0  0  0  0
   29.9508   16.7564  112.7682 H   0  0  0  0  0  0  0  0  0  0  0  0
   31.2637   12.7932  110.1561 H   0  0  0  0  0  0  0  0  0  0  0  0
   28.3356   15.7086  111.2416 H   0  0  0  0  0  0  0  0  0  0  0  0
   29.1978   12.8568  109.3292 H   0  0  0  0  0  0  0  0  0  0  0  0
   29.9360   14.6836  115.4119 H   0  0  0  0  0  0  0  0  0  0  0  0
   30.9491   11.8946  115.1302 H   0  0  0  0  0  0  0  0  0  0  0  0
   28.6372   12.9754  116.7933 H   0  0  0  0  0  0  0  0  0  0  0  0
   30.2399   12.4342  117.3976 H   0  0  0  0  0  0  0  0  0  0  0  0
   28.3084   11.7595  111.5978 H   0  0  0  0  0  0  0  0  0  0  0  0
   29.8448   10.3750  110.5316 H   0  0  0  0  0  0  0  0  0  0  0  0
   28.7765    9.0299  111.0570 H   0  0  0  0  0  0  0  0  0  0  0  0
   31.3742    9.1594  111.7980 H   0  0  0  0  0  0  0  0  0  0  0  0
   30.1074    8.5124  112.8949 H   0  0  0  0  0  0  0  0  0  0  0  0
   30.9695   10.1524  114.2913 H   0  0  0  0  0  0  0  0  0  0  0  0
   31.4926   11.1899  112.9215 H   0  0  0  0  0  0  0  0  0  0  0  0
   28.0199    9.6310  114.3925 H   0  0  0  0  0  0  0  0  0  0  0  0
   25.4099    8.6520  113.4148 H   0  0  0  0  0  0  0  0  0  0  0  0
   25.4327    7.1646  115.3516 H   0  0  0  0  0  0  0  0  0  0  0  0
   26.9011    7.9814  115.9865 H   0  0  0  0  0  0  0  0  0  0  0  0
   25.6190    6.0291  113.0876 H   0  0  0  0  0  0  0  0  0  0  0  0
   29.0138    7.2201  115.3691 H   0  0  0  0  0  0  0  0  0  0  0  0
   27.0212    4.4788  111.7954 H   0  0  0  0  0  0  0  0  0  0  0  0
   30.4133    5.6545  114.0830 H   0  0  0  0  0  0  0  0  0  0  0  0
   29.4128    4.2945  112.2827 H   0  0  0  0  0  0  0  0  0  0  0  0
   26.6395   11.0859  115.5291 H   0  0  0  0  0  0  0  0  0  0  0  0
   24.7546   11.1025  117.6065 H   0  0  0  0  0  0  0  0  0  0  0  0
   25.6109   13.7679  116.5601 H   0  0  0  0  0  0  0  0  0  0  0  0
   26.9201   12.6167  116.9928 H   0  0  0  0  0  0  0  0  0  0  0  0
   24.6932   13.6460  118.8016 H   0  0  0  0  0  0  0  0  0  0  0  0
   26.4437   14.0389  118.8920 H   0  0  0  0  0  0  0  0  0  0  0  0
   27.0080   11.7984  119.5439 H   0  0  0  0  0  0  0  0  0  0  0  0
   25.3646   11.1940  119.1429 H   0  0  0  0  0  0  0  0  0  0  0  0
   24.4326   12.6187  120.9695 H   0  0  0  0  0  0  0  0  0  0  0  0
   26.1037   13.1189  121.3982 H   0  0  0  0  0  0  0  0  0  0  0  0
   25.3183   11.3275  122.7866 H   0  0  0  0  0  0  0  0  0  0  0  0
   26.5902   10.8134  121.8770 H   0  0  0  0  0  0  0  0  0  0  0  0
   25.0589   10.3551  121.4841 H   0  0  0  0  0  0  0  0  0  0  0  0
   21.7070   12.4101  116.5726 H   0  0  0  0  0  0  0  0  0  0  0  0
   22.0438   12.1687  118.9292 H   0  0  0  0  0  0  0  0  0  0  0  0
   23.7077   11.5790  118.5973 H   0  0  0  0  0  0  0  0  0  0  0  0
   21.5989   10.1414  116.4461 H   0  0  0  0  0  0  0  0  0  0  0  0
   20.1997    8.2213  117.9420 H   0  0  0  0  0  0  0  0  0  0  0  0
   19.9904    6.9592  115.8787 H   0  0  0  0  0  0  0  0  0  0  0  0
   21.3975    7.8156  115.1621 H   0  0  0  0  0  0  0  0  0  0  0  0
   19.3738    8.6891  114.4838 H   0  0  0  0  0  0  0  0  0  0  0  0
   20.5413    5.9314  118.1602 H   0  0  0  0  0  0  0  0  0  0  0  0
   23.4045    5.3930  118.7469 H   0  0  0  0  0  0  0  0  0  0  0  0
   20.9557    3.8999  119.7761 H   0  0  0  0  0  0  0  0  0  0  0  0
   21.7692    5.2502  120.6372 H   0  0  0  0  0  0  0  0  0  0  0  0
   23.5270    2.5752  115.3200 H   0  0  0  0  0  0  0  0  0  0  0  0
   25.8441    2.4852  115.0068 H   0  0  0  0  0  0  0  0  0  0  0  0
   26.1286    1.8348  116.6569 H   0  0  0  0  0  0  0  0  0  0  0  0
   25.7873    4.6803  115.7370 H   0  0  0  0  0  0  0  0  0  0  0  0
   26.9263    3.9890  116.9418 H   0  0  0  0  0  0  0  0  0  0  0  0
   25.2941    3.8833  118.6134 H   0  0  0  0  0  0  0  0  0  0  0  0
   24.7075    5.3180  117.7055 H   0  0  0  0  0  0  0  0  0  0  0  0
   23.8886    1.6147  118.7133 H   0  0  0  0  0  0  0  0  0  0  0  0
   23.4969   -1.2145  117.8367 H   0  0  0  0  0  0  0  0  0  0  0  0
   24.6396   -1.9538  119.8296 H   0  0  0  0  0  0  0  0  0  0  0  0
   24.7434   -0.2716  120.4508 H   0  0  0  0  0  0  0  0  0  0  0  0
   25.8773   -2.4585  117.6136 H   0  0  0  0  0  0  0  0  0  0  0  0
   26.6276    1.0373  119.9521 H   0  0  0  0  0  0  0  0  0  0  0  0
   28.0574   -2.1733  116.4805 H   0  0  0  0  0  0  0  0  0  0  0  0
   28.8069    1.3192  118.8182 H   0  0  0  0  0  0  0  0  0  0  0  0
   29.5246   -0.2877  117.0885 H   0  0  0  0  0  0  0  0  0  0  0  0
   21.1999   -0.3684  117.7281 H   0  0  0  0  0  0  0  0  0  0  0  0
   19.8302   -1.0994  120.2318 H   0  0  0  0  0  0  0  0  0  0  0  0
   18.3778    0.9058  120.1808 H   0  0  0  0  0  0  0  0  0  0  0  0
   19.3640    1.5770  118.8378 H   0  0  0  0  0  0  0  0  0  0  0  0
   20.1017    1.3286  120.4567 H   0  0  0  0  0  0  0  0  0  0  0  0
  1  2  1  0  0  0  0
  1 90  1  0  0  0  0
  1 91  1  0  0  0  0
  1 92  1  0  0  0  0
  2  3  1  0  0  0  0
  2  5  1  0  0  0  0
  2 93  1  1  0  0  0
  3  4  2  0  0  0  0
  3 13  1  0  0  0  0
  5  6  1  0  0  0  0
  5 94  1  0  0  0  0
  5 95  1  0  0  0  0
  6  7  2  0  0  0  0
  6  8  1  0  0  0  0
  7  9  1  0  0  0  0
  7 96  1  0  0  0  0
  8 10  2  0  0  0  0
  8 97  1  0  0  0  0
  9 11  2  0  0  0  0
  9 98  1  0  0  0  0
 10 11  1  0  0  0  0
 10 99  1  0  0  0  0
 11 12  1  0  0  0  0
 12100  1  0  0  0  0
 13 14  1  0  0  0  0
 13101  1  0  0  0  0
 14 15  1  0  0  0  0
 14 17  1  0  0  0  0
 14102  1  6  0  0  0
 15 16  2  0  0  0  0
 15 21  1  0  0  0  0
 17 18  1  0  0  0  0
 17103  1  0  0  0  0
 17104  1  0  0  0  0
 18 19  1  0  0  0  0
 18 20  2  0  0  0  0
 21 22  1  0  0  0  0
 21 27  1  0  0  0  0
 22 23  1  0  0  0  0
 22 25  1  0  0  0  0
 22105  1  6  0  0  0
 23 24  2  0  0  0  0
 23 28  1  0  0  0  0
 25 26  1  0  0  0  0
 25106  1  0  0  0  0
 25107  1  0  0  0  0
 26 27  1  0  0  0  0
 26108  1  0  0  0  0
 26109  1  0  0  0  0
 27110  1  0  0  0  0
 27111  1  0  0  0  0
 28 29  1  0  0  0  0
 28112  1  0  0  0  0
 29 30  1  0  0  0  0
 29 32  1  0  0  0  0
 29113  1  6  0  0  0
 30 31  2  0  0  0  0
 30 39  1  0  0  0  0
 32 33  1  0  0  0  0
 32114  1  0  0  0  0
 32115  1  0  0  0  0
 33 34  2  0  0  0  0
 33 35  1  0  0  0  0
 34 36  1  0  0  0  0
 34116  1  0  0  0  0
 35 37  2  0  0  0  0
 35117  1  0  0  0  0
 36 38  2  0  0  0  0
 36118  1  0  0  0  0
 37 38  1  0  0  0  0
 37119  1  0  0  0  0
 38120  1  0  0  0  0
 39 40  1  0  0  0  0
 39121  1  0  0  0  0
 40 41  1  0  0  0  0
 40 43  1  0  0  0  0
 40122  1  1  0  0  0
 41 42  2  0  0  0  0
 41 48  1  0  0  0  0
 43 44  1  0  0  0  0
 43123  1  0  0  0  0
 43124  1  0  0  0  0
 44 45  1  0  0  0  0
 44125  1  0  0  0  0
 44126  1  0  0  0  0
 45 46  1  0  0  0  0
 45127  1  0  0  0  0
 45128  1  0  0  0  0
 46 47  1  0  0  0  0
 46129  1  0  0  0  0
 46130  1  0  0  0  0
 47131  1  0  0  0  0
 47132  1  0  0  0  0
 47133  1  0  0  0  0
 48 49  1  0  0  0  0
 48134  1  0  0  0  0
 49 50  1  0  0  0  0
 49135  1  0  0  0  0
 49136  1  0  0  0  0
 50 51  2  0  0  0  0
 50 52  1  0  0  0  0
 52 53  1  0  0  0  0
 52137  1  0  0  0  0
 53 54  1  0  0  0  0
 53 56  1  0  0  0  0
 53138  1  1  0  0  0
 54 55  2  0  0  0  0
 54 58  1  0  0  0  0
 56 57  1  0  0  0  0
 56139  1  0  0  0  0
 56140  1  0  0  0  0
 57141  1  0  0  0  0
 58 59  1  0  0  0  0
 58142  1  0  0  0  0
 59 60  1  0  0  0  0
 59 62  1  0  0  0  0
 59143  1  1  0  0  0
 60 61  2  0  0  0  0
 60 66  1  0  0  0  0
 62 63  1  0  0  0  0
 62144  1  0  0  0  0
 62145  1  0  0  0  0
 63 64  1  0  0  0  0
 63 65  2  0  0  0  0
 66 67  1  0  0  0  0
 66 72  1  0  0  0  0
 67 68  1  0  0  0  0
 67 70  1  0  0  0  0
 67146  1  6  0  0  0
 68 69  2  0  0  0  0
 68 73  1  0  0  0  0
 70 71  1  0  0  0  0
 70147  1  0  0  0  0
 70148  1  0  0  0  0
 71 72  1  0  0  0  0
 71149  1  0  0  0  0
 71150  1  0  0  0  0
 72151  1  0  0  0  0
 72152  1  0  0  0  0
 73 74  1  0  0  0  0
 73153  1  0  0  0  0
 74 75  1  0  0  0  0
 74 77  1  0  0  0  0
 74154  1  6  0  0  0
 75 76  2  0  0  0  0
 75 84  1  0  0  0  0
 77 78  1  0  0  0  0
 77155  1  0  0  0  0
 77156  1  0  0  0  0
 78 79  2  0  0  0  0
 78 80  1  0  0  0  0
 79 81  1  0  0  0  0
 79157  1  0  0  0  0
 80 82  2  0  0  0  0
 80158  1  0  0  0  0
 81 83  2  0  0  0  0
 81159  1  0  0  0  0
 82 83  1  0  0  0  0
 82160  1  0  0  0  0
 83161  1  0  0  0  0
 84 85  1  0  0  0  0
 84162  1  0  0  0  0
 85 86  1  0  0  0  0
 85 88  1  0  0  0  0
 85163  1  1  0  0  0
 86 87  1  0  0  0  0
 86 89  2  0  0  0  0
 88164  1  0  0  0  0
 88165  1  0  0  0  0
 88166  1  0  0  0  0
M  CHG  5   1   1  19  -1  47   1  64  -1  87  -1
M  END
