5dhp_ligand
 OpenBabel08222323333D

 56 59  0  0  1  0  0  0  0  0999 V2000
   13.9090  -19.3180  -44.9090 C   0  0  0  0  0  0  0  0  0  0  0  0
   11.7160  -18.8050  -44.8200 C   0  0  0  0  0  0  0  0  0  0  0  0
   11.7070  -18.3160  -46.0970 C   0  0  0  0  0  0  0  0  0  0  0  0
   12.8690  -18.3270  -46.8020 C   0  0  0  0  0  0  0  0  0  0  0  0
   10.5210  -18.6950  -44.3590 N   0  0  0  0  0  0  0  0  0  0  0  0
    8.4730  -20.6380  -47.4560 C   0  0  0  0  0  0  0  0  0  0  0  0
    9.2360  -21.3190  -46.5350 C   0  0  0  0  0  0  0  0  0  0  0  0
   10.5420  -21.6140  -46.8370 C   0  0  0  0  0  0  0  0  0  0  0  0
   11.0670  -21.2240  -48.0560 C   0  0  0  0  0  0  0  0  0  0  0  0
   10.3000  -20.5430  -48.9670 C   0  0  0  0  0  0  0  0  0  0  0  0
    8.9990  -20.2320  -48.6630 C   0  0  0  0  0  0  0  0  0  0  0  0
    8.1150  -19.4990  -49.6770 C   0  0  0  0  0  0  0  0  0  0  0  0
    8.3630  -18.0120  -49.8180 C   0  0  0  0  0  0  0  0  0  0  0  0
    8.5330  -17.4490  -48.5000 N   0  0  0  0  0  0  0  0  0  0  0  0
    7.5170  -17.0870  -47.7780 C   0  0  0  0  0  0  0  0  0  0  0  0
    6.3800  -17.1520  -48.1860 O   0  0  0  0  0  0  0  0  0  0  0  0
    7.8690  -16.5330  -46.4100 C   0  0  0  0  0  0  0  0  0  0  0  0
    8.1490  -17.8060  -45.1400 S   0  0  0  0  0  0  0  0  0  0  0  0
    9.7850  -18.1430  -45.2960 C   0  0  0  0  0  0  0  0  0  0  0  0
   10.4940  -17.9120  -46.3680 N   0  0  0  0  0  0  0  0  0  0  0  0
   12.9460  -17.8690  -48.0130 N   0  0  0  0  0  0  0  0  0  0  0  0
   13.9640  -18.8280  -46.1920 N   0  0  0  0  0  0  0  0  0  0  0  0
   12.7950  -19.2980  -44.2530 N   0  0  0  0  0  0  0  0  0  0  0  0
   10.1660  -19.1270  -43.0420 C   0  0  2  0  0  0  0  0  0  0  0  0
    9.1210  -20.0760  -43.1320 O   0  0  0  0  0  0  0  0  0  0  0  0
    8.4640  -20.0220  -41.9150 C   0  0  2  0  0  0  0  0  0  0  0  0
    7.0790  -20.4880  -42.2230 C   0  0  0  0  0  0  0  0  0  0  0  0
    6.8940  -21.8060  -41.7760 O   0  0  0  0  0  0  0  0  0  0  0  0
    8.3300  -18.5280  -41.6620 C   0  0  1  0  0  0  0  0  0  0  0  0
    8.1730  -18.2480  -40.2940 O   0  0  0  0  0  0  0  0  0  0  0  0
    9.6420  -17.9860  -42.1950 C   0  0  1  0  0  0  0  0  0  0  0  0
   10.5190  -17.8390  -41.1510 O   0  0  0  0  0  0  0  0  0  0  0  0
   14.8019  -19.7222  -44.4459 H   0  0  0  0  0  0  0  0  0  0  0  0
    7.4369  -20.4165  -47.2271 H   0  0  0  0  0  0  0  0  0  0  0  0
    8.8112  -21.6184  -45.5837 H   0  0  0  0  0  0  0  0  0  0  0  0
   11.1586  -22.1496  -46.1243 H   0  0  0  0  0  0  0  0  0  0  0  0
   12.0979  -21.4596  -48.2945 H   0  0  0  0  0  0  0  0  0  0  0  0
   10.7202  -20.2519  -49.9229 H   0  0  0  0  0  0  0  0  0  0  0  0
    7.0670  -19.6385  -49.3733 H   0  0  0  0  0  0  0  0  0  0  0  0
    8.2762  -19.9623  -50.6616 H   0  0  0  0  0  0  0  0  0  0  0  0
    7.5042  -17.5382  -50.3159 H   0  0  0  0  0  0  0  0  0  0  0  0
    9.2718  -17.8423  -50.4140 H   0  0  0  0  0  0  0  0  0  0  0  0
    9.4566  -17.3350  -48.1339 H   0  0  0  0  0  0  0  0  0  0  0  0
    7.0429  -15.8881  -46.0758 H   0  0  0  0  0  0  0  0  0  0  0  0
    8.7864  -15.9337  -46.5060 H   0  0  0  0  0  0  0  0  0  0  0  0
   13.8440  -17.8937  -48.5168 H   0  0  0  0  0  0  0  0  0  0  0  0
   12.1091  -17.4806  -48.4709 H   0  0  0  0  0  0  0  0  0  0  0  0
   11.0467  -19.5743  -42.5580 H   0  0  0  0  0  0  0  0  0  0  0  0
    8.9566  -20.5783  -41.1039 H   0  0  0  0  0  0  0  0  0  0  0  0
    6.9168  -20.4482  -43.3102 H   0  0  0  0  0  0  0  0  0  0  0  0
    6.3552  -19.8300  -41.7199 H   0  0  0  0  0  0  0  0  0  0  0  0
    7.0312  -21.8428  -40.8367 H   0  0  0  0  0  0  0  0  0  0  0  0
    7.4771  -18.1098  -42.2167 H   0  0  0  0  0  0  0  0  0  0  0  0
    8.0924  -17.3094  -40.1712 H   0  0  0  0  0  0  0  0  0  0  0  0
    9.5154  -17.0509  -42.7602 H   0  0  0  0  0  0  0  0  0  0  0  0
   10.1550  -17.2333  -40.5160 H   0  0  0  0  0  0  0  0  0  0  0  0
  1 22  2  0  0  0  0
  1 33  1  0  0  0  0
  2  3  1  0  0  0  0
  2 23  2  0  0  0  0
  3  4  2  0  0  0  0
  3 20  1  0  0  0  0
  4 21  1  0  0  0  0
  4 22  1  0  0  0  0
  5  2  1  0  0  0  0
  5 24  1  0  0  0  0
  6  7  2  0  0  0  0
  6 34  1  0  0  0  0
  7  8  1  0  0  0  0
  7 35  1  0  0  0  0
  8 36  1  0  0  0  0
  9  8  2  0  0  0  0
  9 37  1  0  0  0  0
 10  9  1  0  0  0  0
 10 38  1  0  0  0  0
 11  6  1  0  0  0  0
 11 10  2  0  0  0  0
 12 11  1  0  0  0  0
 12 39  1  0  0  0  0
 12 40  1  0  0  0  0
 13 12  1  0  0  0  0
 13 41  1  0  0  0  0
 13 42  1  0  0  0  0
 14 13  1  0  0  0  0
 14 43  1  0  0  0  0
 15 14  1  0  0  0  0
 15 16  2  0  0  0  0
 17 15  1  0  0  0  0
 17 44  1  0  0  0  0
 17 45  1  0  0  0  0
 18 17  1  0  0  0  0
 18 19  1  0  0  0  0
 19  5  1  0  0  0  0
 19 20  2  0  0  0  0
 21 46  1  0  0  0  0
 21 47  1  0  0  0  0
 23  1  1  0  0  0  0
 24 25  1  0  0  0  0
 24 31  1  0  0  0  0
 24 48  1  1  0  0  0
 25 26  1  0  0  0  0
 26 27  1  0  0  0  0
 26 29  1  0  0  0  0
 26 49  1  1  0  0  0
 27 28  1  0  0  0  0
 27 50  1  0  0  0  0
 27 51  1  0  0  0  0
 28 52  1  0  0  0  0
 29 30  1  0  0  0  0
 29 31  1  0  0  0  0
 29 53  1  6  0  0  0
 30 54  1  0  0  0  0
 31 32  1  0  0  0  0
 31 55  1  6  0  0  0
 32 56  1  0  0  0  0
M  END
