5dv4_ligand
 OpenBabel08222323333D

 94 97  0  0  1  0  0  0  0  0999 V2000
  -29.6200   13.5530   11.1810 C   0  0  1  0  0  0  0  0  0  0  0  0
  -29.4620   14.2940   12.4020 O   0  0  0  0  0  0  0  0  0  0  0  0
  -30.9310   12.8060   11.2190 C   0  0  2  0  0  0  0  0  0  0  0  0
  -30.7710   11.5490   10.5520 N   0  3  0  0  0  0  0  0  0  0  0  0
  -32.1300   13.5470   10.6170 C   0  0  1  0  0  0  0  0  0  0  0  0
  -33.2320   13.5190   11.4880 O   0  0  0  0  0  0  0  0  0  0  0  0
  -31.7160   14.9720   10.2490 C   0  0  2  0  0  0  0  0  0  0  0  0
  -32.7740   15.6180    9.6010 O   0  0  0  0  0  0  0  0  0  0  0  0
  -30.5480   14.9000    9.3080 C   0  0  2  0  0  0  0  0  0  0  0  0
  -29.4750   14.3720   10.0210 O   0  0  0  0  0  0  0  0  0  0  0  0
  -30.1880   16.2950    8.7200 C   0  0  0  0  0  0  0  0  0  0  0  0
  -27.3040   13.5430   15.9870 C   0  0  1  0  0  0  0  0  0  0  0  0
  -27.4800   14.8170   16.5310 N   0  3  0  0  0  0  0  0  0  0  0  0
  -28.6600   12.8540   15.7500 C   0  0  1  0  0  0  0  0  0  0  0  0
  -29.4380   13.6350   14.7100 C   0  0  1  0  0  0  0  0  0  0  0  0
  -29.4600   14.9790   15.1040 O   0  0  0  0  0  0  0  0  0  0  0  0
  -28.7210   13.5570   13.3650 C   0  0  2  0  0  0  0  0  0  0  0  0
  -27.3670   14.1910   13.5120 C   0  0  1  0  0  0  0  0  0  0  0  0
  -27.5000   15.5930   13.6940 N   0  3  0  0  0  0  0  0  0  0  0  0
  -26.5420   13.6140   14.6660 C   0  0  0  0  0  0  0  0  0  0  0  0
  -30.7910   15.4580   15.2840 C   0  0  1  0  0  0  0  0  0  0  0  0
  -31.6890   14.4160   15.7810 C   0  0  1  0  0  0  0  0  0  0  0  0
  -32.2300   14.9020   17.0280 C   0  0  1  0  0  0  0  0  0  0  0  0
  -31.2580   15.8460   17.5240 C   0  0  2  0  0  0  0  0  0  0  0  0
  -30.7610   16.5280   16.3080 O   0  0  0  0  0  0  0  0  0  0  0  0
  -30.1920   15.0830   18.2400 C   0  0  0  0  0  0  0  0  0  0  0  0
  -35.2970   18.5330   18.6740 C   0  0  1  0  0  0  0  0  0  0  0  0
  -36.1400   17.6060   17.8400 C   0  0  1  0  0  0  0  0  0  0  0  0
  -35.2910   16.8510   16.8940 C   0  0  2  0  0  0  0  0  0  0  0  0
  -34.1380   16.2090   17.6170 C   0  0  1  0  0  0  0  0  0  0  0  0
  -33.3660   15.6680   16.5810 O   0  0  0  0  0  0  0  0  0  0  0  0
  -34.2450   17.7300   19.3620 C   0  0  1  0  0  0  0  0  0  0  0  0
  -33.4620   17.1950   18.3540 O   0  0  0  0  0  0  0  0  0  0  0  0
  -33.5100   18.4790   20.4680 C   0  0  0  0  0  0  0  0  0  0  0  0
  -31.2990   17.0080    8.1370 N   0  3  0  0  0  0  0  0  0  0  0  0
  -32.8330   14.2780   14.8830 O   0  0  0  0  0  0  0  0  0  0  0  0
  -36.7250   16.7040   18.7240 O   0  0  0  0  0  0  0  0  0  0  0  0
  -34.6680   19.4420   17.8400 O   0  0  0  0  0  0  0  0  0  0  0  0
  -30.6760   13.7740   18.4820 O   0  0  0  0  0  0  0  0  0  0  0  0
  -28.4570   11.5520   15.3370 O   0  0  0  0  0  0  0  0  0  0  0  0
  -33.1110   17.5680   21.5180 N   0  3  0  0  0  0  0  0  0  0  0  0
  -34.7610   17.7560   15.9140 N   0  3  0  0  0  0  0  0  0  0  0  0
  -28.8157   12.8037   11.1423 H   0  0  0  0  0  0  0  0  0  0  0  0
  -31.1655   12.6128   12.2762 H   0  0  0  0  0  0  0  0  0  0  0  0
  -31.6431   11.0440   10.5733 H   0  0  0  0  0  0  0  0  0  0  0  0
  -30.0588   11.0093   11.0184 H   0  0  0  0  0  0  0  0  0  0  0  0
  -30.4986   11.7088    9.5948 H   0  0  0  0  0  0  0  0  0  0  0  0
  -32.4238   13.0299    9.6917 H   0  0  0  0  0  0  0  0  0  0  0  0
  -33.9593   13.9840   11.0917 H   0  0  0  0  0  0  0  0  0  0  0  0
  -31.4375   15.5278   11.1565 H   0  0  0  0  0  0  0  0  0  0  0  0
  -32.9986   15.1408    8.8109 H   0  0  0  0  0  0  0  0  0  0  0  0
  -30.7981   14.2265    8.4751 H   0  0  0  0  0  0  0  0  0  0  0  0
  -29.4255   16.1519    7.9402 H   0  0  0  0  0  0  0  0  0  0  0  0
  -29.7724   16.9117    9.5305 H   0  0  0  0  0  0  0  0  0  0  0  0
  -26.7211   12.9399   16.6987 H   0  0  0  0  0  0  0  0  0  0  0  0
  -26.5802   15.2473   16.6769 H   0  0  0  0  0  0  0  0  0  0  0  0
  -27.9635   14.7422   17.4123 H   0  0  0  0  0  0  0  0  0  0  0  0
  -28.0233   15.3812   15.8965 H   0  0  0  0  0  0  0  0  0  0  0  0
  -29.2301   12.8438   16.6906 H   0  0  0  0  0  0  0  0  0  0  0  0
  -30.4605   13.2391   14.6218 H   0  0  0  0  0  0  0  0  0  0  0  0
  -28.6204   12.5088   13.0471 H   0  0  0  0  0  0  0  0  0  0  0  0
  -26.8126   14.0111   12.5791 H   0  0  0  0  0  0  0  0  0  0  0  0
  -26.5863   16.0073   13.7914 H   0  0  0  0  0  0  0  0  0  0  0  0
  -28.0413   15.7741   14.5248 H   0  0  0  0  0  0  0  0  0  0  0  0
  -27.9667   15.9928   12.8950 H   0  0  0  0  0  0  0  0  0  0  0  0
  -26.2252   12.5968   14.3922 H   0  0  0  0  0  0  0  0  0  0  0  0
  -25.6548   14.2481   14.8101 H   0  0  0  0  0  0  0  0  0  0  0  0
  -31.1713   15.8498   14.3291 H   0  0  0  0  0  0  0  0  0  0  0  0
  -31.1591   13.4600   15.9051 H   0  0  0  0  0  0  0  0  0  0  0  0
  -32.4793   14.1126   17.7523 H   0  0  0  0  0  0  0  0  0  0  0  0
  -31.7175   16.5722   18.2106 H   0  0  0  0  0  0  0  0  0  0  0  0
  -29.9575   15.5764   19.1948 H   0  0  0  0  0  0  0  0  0  0  0  0
  -29.2854   15.0365   17.6188 H   0  0  0  0  0  0  0  0  0  0  0  0
  -35.9227   19.0583   19.4106 H   0  0  0  0  0  0  0  0  0  0  0  0
  -36.9075   18.1715   17.2912 H   0  0  0  0  0  0  0  0  0  0  0  0
  -35.8942   16.0754   16.3994 H   0  0  0  0  0  0  0  0  0  0  0  0
  -34.4816   15.4150   18.2963 H   0  0  0  0  0  0  0  0  0  0  0  0
  -34.7460   16.8880   19.8621 H   0  0  0  0  0  0  0  0  0  0  0  0
  -34.1753   19.2473   20.8889 H   0  0  0  0  0  0  0  0  0  0  0  0
  -32.6149   18.9599   20.0466 H   0  0  0  0  0  0  0  0  0  0  0  0
  -30.9796   17.8959    7.7825 H   0  0  0  0  0  0  0  0  0  0  0  0
  -32.0056   17.1613    8.8393 H   0  0  0  0  0  0  0  0  0  0  0  0
  -31.6878   16.4650    7.3820 H   0  0  0  0  0  0  0  0  0  0  0  0
  -33.2516   15.1237   14.7729 H   0  0  0  0  0  0  0  0  0  0  0  0
  -37.2743   17.1759   19.3388 H   0  0  0  0  0  0  0  0  0  0  0  0
  -34.1431   18.9737   17.2014 H   0  0  0  0  0  0  0  0  0  0  0  0
  -30.0113   13.2710   18.9378 H   0  0  0  0  0  0  0  0  0  0  0  0
  -29.2969   11.1293   15.2016 H   0  0  0  0  0  0  0  0  0  0  0  0
  -32.6272   18.0787   22.2400 H   0  0  0  0  0  0  0  0  0  0  0  0
  -32.4989   16.8635   21.1370 H   0  0  0  0  0  0  0  0  0  0  0  0
  -33.9287   17.1269   21.9089 H   0  0  0  0  0  0  0  0  0  0  0  0
  -35.5201   18.1967   15.4183 H   0  0  0  0  0  0  0  0  0  0  0  0
  -34.1853   17.2461   15.2623 H   0  0  0  0  0  0  0  0  0  0  0  0
  -34.2055   18.4608   16.3731 H   0  0  0  0  0  0  0  0  0  0  0  0
  1  3  1  0  0  0  0
  1 10  1  0  0  0  0
  1 43  1  6  0  0  0
  2  1  1  0  0  0  0
  3  4  1  0  0  0  0
  3  5  1  0  0  0  0
  3 44  1  1  0  0  0
  4 45  1  0  0  0  0
  4 46  1  0  0  0  0
  4 47  1  0  0  0  0
  5  6  1  0  0  0  0
  5  7  1  0  0  0  0
  5 48  1  6  0  0  0
  6 49  1  0  0  0  0
  7  8  1  0  0  0  0
  7 50  1  1  0  0  0
  8 51  1  0  0  0  0
  9  7  1  0  0  0  0
  9 11  1  0  0  0  0
  9 52  1  6  0  0  0
 10  9  1  0  0  0  0
 11 35  1  0  0  0  0
 11 53  1  0  0  0  0
 11 54  1  0  0  0  0
 12 13  1  0  0  0  0
 12 20  1  0  0  0  0
 12 55  1  1  0  0  0
 13 56  1  0  0  0  0
 13 57  1  0  0  0  0
 13 58  1  0  0  0  0
 14 12  1  0  0  0  0
 14 40  1  0  0  0  0
 14 59  1  1  0  0  0
 15 14  1  0  0  0  0
 15 17  1  0  0  0  0
 15 60  1  6  0  0  0
 16 15  1  0  0  0  0
 17  2  1  0  0  0  0
 17 18  1  0  0  0  0
 17 61  1  6  0  0  0
 18 19  1  0  0  0  0
 18 20  1  0  0  0  0
 18 62  1  6  0  0  0
 19 63  1  0  0  0  0
 19 64  1  0  0  0  0
 19 65  1  0  0  0  0
 20 66  1  0  0  0  0
 20 67  1  0  0  0  0
 21 16  1  0  0  0  0
 21 68  1  6  0  0  0
 22 21  1  0  0  0  0
 22 36  1  0  0  0  0
 22 69  1  1  0  0  0
 23 22  1  0  0  0  0
 23 24  1  0  0  0  0
 23 70  1  1  0  0  0
 24 25  1  0  0  0  0
 24 26  1  0  0  0  0
 24 71  1  1  0  0  0
 25 21  1  0  0  0  0
 26 39  1  0  0  0  0
 26 72  1  0  0  0  0
 26 73  1  0  0  0  0
 27 32  1  0  0  0  0
 27 38  1  0  0  0  0
 27 74  1  1  0  0  0
 28 27  1  0  0  0  0
 28 37  1  0  0  0  0
 28 75  1  6  0  0  0
 29 28  1  0  0  0  0
 29 42  1  0  0  0  0
 29 76  1  6  0  0  0
 30 29  1  0  0  0  0
 30 31  1  0  0  0  0
 30 33  1  0  0  0  0
 30 77  1  1  0  0  0
 31 23  1  0  0  0  0
 32 33  1  0  0  0  0
 32 34  1  0  0  0  0
 32 78  1  1  0  0  0
 34 41  1  0  0  0  0
 34 79  1  0  0  0  0
 34 80  1  0  0  0  0
 35 81  1  0  0  0  0
 35 82  1  0  0  0  0
 35 83  1  0  0  0  0
 36 84  1  0  0  0  0
 37 85  1  0  0  0  0
 38 86  1  0  0  0  0
 39 87  1  0  0  0  0
 40 88  1  0  0  0  0
 41 89  1  0  0  0  0
 41 90  1  0  0  0  0
 41 91  1  0  0  0  0
 42 92  1  0  0  0  0
 42 93  1  0  0  0  0
 42 94  1  0  0  0  0
M  CHG  6   4   1  13   1  19   1  35   1  41   1  42   1
M  END
