5enb_ligand
 OpenBabel08222323333D

 21 21  0  0  0  0  0  0  0  0999 V2000
  -21.5150    3.5070   -8.5720 N   0  0  0  0  0  0  0  0  0  0  0  0
  -25.5740    1.8050   -7.1200 C   0  0  0  0  0  0  0  0  0  0  0  0
  -24.7270    1.8300   -8.2100 C   0  0  0  0  0  0  0  0  0  0  0  0
  -24.3350    3.0550   -8.7480 C   0  0  0  0  0  0  0  0  0  0  0  0
  -22.0740    3.1930   -9.7470 C   0  0  0  0  0  0  0  0  0  0  0  0
  -21.1460    2.7910  -11.0960 S   0  0  0  0  0  0  0  0  0  0  0  0
  -23.4050    3.0700   -9.8070 N   0  0  0  0  0  0  0  0  0  0  0  0
  -24.8010    4.2630   -8.2160 C   0  0  0  0  0  0  0  0  0  0  0  0
  -24.3280    5.5950   -8.7310 C   0  0  0  0  0  0  0  0  0  0  0  0
  -26.0510    2.9840   -6.5850 C   0  0  0  0  0  0  0  0  0  0  0  0
  -25.6760    4.1970   -7.1340 C   0  0  0  0  0  0  0  0  0  0  0  0
  -22.0928    3.7411   -7.7901 H   0  0  0  0  0  0  0  0  0  0  0  0
  -20.5196    3.5075   -8.4761 H   0  0  0  0  0  0  0  0  0  0  0  0
  -25.8651    0.8565   -6.6833 H   0  0  0  0  0  0  0  0  0  0  0  0
  -24.3692    0.9036   -8.6445 H   0  0  0  0  0  0  0  0  0  0  0  0
  -23.7911    2.9763  -10.7247 H   0  0  0  0  0  0  0  0  0  0  0  0
  -24.8231    6.4016   -8.1704 H   0  0  0  0  0  0  0  0  0  0  0  0
  -24.5765    5.6846   -9.7988 H   0  0  0  0  0  0  0  0  0  0  0  0
  -23.2386    5.6728   -8.6003 H   0  0  0  0  0  0  0  0  0  0  0  0
  -26.7208    2.9596   -5.7330 H   0  0  0  0  0  0  0  0  0  0  0  0
  -26.0710    5.1148   -6.7138 H   0  0  0  0  0  0  0  0  0  0  0  0
  1 12  1  0  0  0  0
  1 13  1  0  0  0  0
  2 10  1  0  0  0  0
  2 14  1  0  0  0  0
  3  2  2  0  0  0  0
  3 15  1  0  0  0  0
  4  3  1  0  0  0  0
  4  8  2  0  0  0  0
  5  1  1  0  0  0  0
  5  6  2  0  0  0  0
  5  7  1  0  0  0  0
  7  4  1  0  0  0  0
  7 16  1  0  0  0  0
  8  9  1  0  0  0  0
  8 11  1  0  0  0  0
  9 17  1  0  0  0  0
  9 18  1  0  0  0  0
  9 19  1  0  0  0  0
 10 11  2  0  0  0  0
 10 20  1  0  0  0  0
 11 21  1  0  0  0  0
M  END
