5erg_ligand
 OpenBabel08222323333D

 50 52  0  0  1  0  0  0  0  0999 V2000
   79.0030   -1.2580  -13.3580 N   0  3  0  0  0  0  0  0  0  0  0  0
   78.7860   -0.2040  -12.4110 C   0  0  2  0  0  0  0  0  0  0  0  0
   77.3090    0.0060  -12.2630 C   0  0  0  0  0  0  0  0  0  0  0  0
   76.8770    0.7980  -11.4320 O   0  5  0  0  0  0  0  0  0  0  0  0
   76.5420   -0.6310  -12.9650 O   0  0  0  0  0  0  0  0  0  0  0  0
   79.5140    1.0490  -12.8900 C   0  0  0  0  0  0  0  0  0  0  0  0
   81.0300    0.8910  -12.8940 C   0  0  0  0  0  0  0  0  0  0  0  0
   81.8270    2.3110  -13.2190 S   0  0  2  0  0  3  0  0  0  0  0  0
   81.4080    2.8040  -14.7190 C   0  0  0  0  0  0  0  0  0  0  0  0
   83.4660    2.0780  -13.2380 C   0  0  0  0  0  0  0  0  0  0  0  0
   84.0590    1.8850  -11.8510 C   0  0  1  0  0  0  0  0  0  0  0  0
   85.2560    1.1380  -11.9490 O   0  0  0  0  0  0  0  0  0  0  0  0
   84.4660    3.1870  -11.2220 C   0  0  1  0  0  0  0  0  0  0  0  0
   83.8340    3.2870   -9.9790 O   0  0  0  0  0  0  0  0  0  0  0  0
   85.9500    3.0770  -10.9810 C   0  0  1  0  0  0  0  0  0  0  0  0
   86.2610    3.7030   -9.7510 O   0  0  0  0  0  0  0  0  0  0  0  0
   86.1650    1.5810  -10.9650 C   0  0  2  0  0  0  0  0  0  0  0  0
   87.5300    1.1590  -11.3360 N   0  0  0  0  0  0  0  0  0  0  0  0
   88.2880    1.7170  -12.2690 C   0  0  0  0  0  0  0  0  0  0  0  0
   89.4600    1.0930  -12.3600 N   0  0  0  0  0  0  0  0  0  0  0  0
   89.4780    0.1150  -11.4670 C   0  0  0  0  0  0  0  0  0  0  0  0
   90.4360   -0.9280  -11.0460 C   0  0  0  0  0  0  0  0  0  0  0  0
   91.6310   -1.0110  -11.6450 N   0  0  0  0  0  0  0  0  0  0  0  0
   90.0770   -1.7700  -10.0740 N   0  0  0  0  0  0  0  0  0  0  0  0
   88.8850   -1.6640   -9.5070 C   0  0  0  0  0  0  0  0  0  0  0  0
   87.9720   -0.7460   -9.8340 N   0  0  0  0  0  0  0  0  0  0  0  0
   88.2000    0.1610  -10.7920 C   0  0  0  0  0  0  0  0  0  0  0  0
   79.9931   -1.4116  -13.4688 H   0  0  0  0  0  0  0  0  0  0  0  0
   78.6016   -0.9999  -14.2459 H   0  0  0  0  0  0  0  0  0  0  0  0
   78.5670   -2.1037  -13.0253 H   0  0  0  0  0  0  0  0  0  0  0  0
   79.1994   -0.4981  -11.4350 H   0  0  0  0  0  0  0  0  0  0  0  0
   79.2502    1.8840  -12.2242 H   0  0  0  0  0  0  0  0  0  0  0  0
   79.1826    1.2774  -13.9137 H   0  0  0  0  0  0  0  0  0  0  0  0
   81.3038    0.1515  -13.6609 H   0  0  0  0  0  0  0  0  0  0  0  0
   81.3477    0.5287  -11.9052 H   0  0  0  0  0  0  0  0  0  0  0  0
   81.9266    3.7452  -14.9538 H   0  0  0  0  0  0  0  0  0  0  0  0
   80.3206    2.9639  -14.7620 H   0  0  0  0  0  0  0  0  0  0  0  0
   81.6948    2.0349  -15.4512 H   0  0  0  0  0  0  0  0  0  0  0  0
   83.9388    2.9565  -13.7013 H   0  0  0  0  0  0  0  0  0  0  0  0
   83.6852    1.1836  -13.8396 H   0  0  0  0  0  0  0  0  0  0  0  0
   83.3282    1.3673  -11.2124 H   0  0  0  0  0  0  0  0  0  0  0  0
   84.2196    4.0446  -11.8652 H   0  0  0  0  0  0  0  0  0  0  0  0
   84.1021    2.5600   -9.4293 H   0  0  0  0  0  0  0  0  0  0  0  0
   86.5301    3.5461  -11.7893 H   0  0  0  0  0  0  0  0  0  0  0  0
   85.7879    3.2719   -9.0490 H   0  0  0  0  0  0  0  0  0  0  0  0
   85.9189    1.1689   -9.9753 H   0  0  0  0  0  0  0  0  0  0  0  0
   87.9922    2.5698  -12.8782 H   0  0  0  0  0  0  0  0  0  0  0  0
   92.3029   -1.7361  -11.3556 H   0  0  0  0  0  0  0  0  0  0  0  0
   91.8782   -0.3497  -12.3950 H   0  0  0  0  0  0  0  0  0  0  0  0
   88.6333   -2.3704   -8.7243 H   0  0  0  0  0  0  0  0  0  0  0  0
  1  2  1  0  0  0  0
  1 28  1  0  0  0  0
  1 29  1  0  0  0  0
  1 30  1  0  0  0  0
  2  3  1  0  0  0  0
  2  6  1  0  0  0  0
  2 31  1  1  0  0  0
  3  4  1  0  0  0  0
  3  5  2  0  0  0  0
  6  7  1  0  0  0  0
  6 32  1  0  0  0  0
  6 33  1  0  0  0  0
  7 34  1  0  0  0  0
  7 35  1  0  0  0  0
  8  7  1  6  0  0  0
  8  9  1  0  0  0  0
  8 10  1  0  0  0  0
  9 36  1  0  0  0  0
  9 37  1  0  0  0  0
  9 38  1  0  0  0  0
 10 11  1  0  0  0  0
 10 39  1  0  0  0  0
 10 40  1  0  0  0  0
 11 12  1  0  0  0  0
 11 13  1  0  0  0  0
 11 41  1  1  0  0  0
 12 17  1  0  0  0  0
 13 14  1  0  0  0  0
 13 15  1  0  0  0  0
 13 42  1  6  0  0  0
 14 43  1  0  0  0  0
 15 16  1  0  0  0  0
 15 17  1  0  0  0  0
 15 44  1  6  0  0  0
 16 45  1  0  0  0  0
 17 18  1  0  0  0  0
 17 46  1  1  0  0  0
 18 19  1  0  0  0  0
 18 27  1  0  0  0  0
 19 20  2  0  0  0  0
 19 47  1  0  0  0  0
 20 21  1  0  0  0  0
 21 22  2  0  0  0  0
 21 27  1  0  0  0  0
 22 23  1  0  0  0  0
 22 24  1  0  0  0  0
 23 48  1  0  0  0  0
 23 49  1  0  0  0  0
 24 25  2  0  0  0  0
 25 26  1  0  0  0  0
 25 50  1  0  0  0  0
 26 27  2  0  0  0  0
M  CHG  2   1   1   4  -1
M  END
