5f6u_ligand
 OpenBabel08222323333D

 39 40  0  0  0  0  0  0  0  0999 V2000
  -12.0950   11.0000  -25.8890 C   0  0  0  0  0  0  0  0  0  0  0  0
  -13.5960   11.0070  -25.8710 C   0  0  0  0  0  0  0  0  0  0  0  0
  -14.0390   11.4670  -24.5800 O   0  0  0  0  0  0  0  0  0  0  0  0
  -14.1730   10.4680  -23.5990 C   0  0  0  0  0  0  0  0  0  0  0  0
  -13.9230    9.3120  -23.8590 O   0  0  0  0  0  0  0  0  0  0  0  0
  -14.2930   10.9120  -22.0950 C   0  0  0  0  0  0  0  0  0  0  0  0
  -12.9570   10.7400  -21.3730 C   0  0  0  0  0  0  0  0  0  0  0  0
  -11.8100   11.6660  -21.9680 C   0  0  0  0  0  0  0  0  0  0  0  0
  -11.9770   13.0330  -22.0260 C   0  0  0  0  0  0  0  0  0  0  0  0
  -10.9530   13.8570  -22.5480 C   0  0  0  0  0  0  0  0  0  0  0  0
  -11.1540   15.2560  -22.5960 O   0  0  0  0  0  0  0  0  0  0  0  0
  -10.6100   11.0930  -22.4460 C   0  0  0  0  0  0  0  0  0  0  0  0
   -9.6200   11.8890  -22.9600 C   0  0  0  0  0  0  0  0  0  0  0  0
   -9.7740   13.2860  -23.0340 C   0  0  0  0  0  0  0  0  0  0  0  0
   -8.6150   14.0720  -23.5770 C   0  0  0  0  0  0  0  0  0  0  0  0
   -7.3930   13.5070  -23.3880 C   0  0  0  0  0  0  0  0  0  0  0  0
   -6.2260   14.1620  -23.8420 C   0  0  0  0  0  0  0  0  0  0  0  0
   -6.3000   15.3930  -24.4750 C   0  0  0  0  0  0  0  0  0  0  0  0
   -7.5090   15.9670  -24.6670 C   0  0  0  0  0  0  0  0  0  0  0  0
   -8.6860   15.3180  -24.2170 C   0  0  0  0  0  0  0  0  0  0  0  0
   -9.9050   15.9730  -24.4430 O   0  0  0  0  0  0  0  0  0  0  0  0
  -11.7417   10.6503  -26.8703 H   0  0  0  0  0  0  0  0  0  0  0  0
  -11.7220   10.3262  -25.1036 H   0  0  0  0  0  0  0  0  0  0  0  0
  -11.7213   12.0183  -25.7064 H   0  0  0  0  0  0  0  0  0  0  0  0
  -13.9733    9.9896  -26.0511 H   0  0  0  0  0  0  0  0  0  0  0  0
  -13.9727   11.6817  -26.6538 H   0  0  0  0  0  0  0  0  0  0  0  0
  -15.0551   10.2953  -21.5961 H   0  0  0  0  0  0  0  0  0  0  0  0
  -14.5924   11.9697  -22.0534 H   0  0  0  0  0  0  0  0  0  0  0  0
  -12.6422    9.6898  -21.4623 H   0  0  0  0  0  0  0  0  0  0  0  0
  -13.0965   10.9920  -20.3114 H   0  0  0  0  0  0  0  0  0  0  0  0
  -12.8984   13.4790  -21.6695 H   0  0  0  0  0  0  0  0  0  0  0  0
  -10.3857   15.6726  -22.9682 H   0  0  0  0  0  0  0  0  0  0  0  0
  -10.4719   10.0186  -22.4059 H   0  0  0  0  0  0  0  0  0  0  0  0
   -8.7023   11.4348  -23.3158 H   0  0  0  0  0  0  0  0  0  0  0  0
   -7.3134   12.5493  -22.8865 H   0  0  0  0  0  0  0  0  0  0  0  0
   -5.2591   13.6951  -23.6931 H   0  0  0  0  0  0  0  0  0  0  0  0
   -5.3979   15.8903  -24.8126 H   0  0  0  0  0  0  0  0  0  0  0  0
   -7.5784   16.9265  -25.1666 H   0  0  0  0  0  0  0  0  0  0  0  0
  -10.6157   15.4442  -24.0999 H   0  0  0  0  0  0  0  0  0  0  0  0
  1  2  1  0  0  0  0
  1 22  1  0  0  0  0
  1 23  1  0  0  0  0
  1 24  1  0  0  0  0
  2  3  1  0  0  0  0
  2 25  1  0  0  0  0
  2 26  1  0  0  0  0
  3  4  1  0  0  0  0
  4  5  2  0  0  0  0
  4  6  1  0  0  0  0
  6  7  1  0  0  0  0
  6 27  1  0  0  0  0
  6 28  1  0  0  0  0
  7  8  1  0  0  0  0
  7 29  1  0  0  0  0
  7 30  1  0  0  0  0
  8  9  2  0  0  0  0
  8 12  1  0  0  0  0
  9 10  1  0  0  0  0
  9 31  1  0  0  0  0
 10 11  1  0  0  0  0
 10 14  2  0  0  0  0
 11 32  1  0  0  0  0
 12 13  2  0  0  0  0
 12 33  1  0  0  0  0
 13 14  1  0  0  0  0
 13 34  1  0  0  0  0
 14 15  1  0  0  0  0
 15 16  2  0  0  0  0
 15 20  1  0  0  0  0
 16 17  1  0  0  0  0
 16 35  1  0  0  0  0
 17 18  2  0  0  0  0
 17 36  1  0  0  0  0
 18 19  1  0  0  0  0
 18 37  1  0  0  0  0
 19 20  2  0  0  0  0
 19 38  1  0  0  0  0
 20 21  1  0  0  0  0
 21 39  1  0  0  0  0
M  END
