5f91_ligand
 OpenBabel08222323333D

 59 62  0  0  1  0  0  0  0  0999 V2000
  164.5430  -14.3710   30.6950 C   0  0  0  0  0  0  0  0  0  0  0  0
  165.5130  -11.2890   30.0130 C   0  0  0  0  0  0  0  0  0  0  0  0
  169.8580  -10.0160   32.0630 C   0  0  0  0  0  0  0  0  0  0  0  0
  170.1440   -8.6750   31.6950 C   0  0  0  0  0  0  0  0  0  0  0  0
  171.7640   -6.9480   31.4300 C   0  0  0  0  0  0  0  0  0  0  0  0
  169.0890   -7.7770   31.5020 C   0  0  0  0  0  0  0  0  0  0  0  0
  167.7710   -8.1920   31.6780 C   0  0  0  0  0  0  0  0  0  0  0  0
  167.4380   -9.4970   32.0440 C   0  0  0  0  0  0  0  0  0  0  0  0
  172.5320  -18.0980   30.2310 O   0  0  0  0  0  0  0  0  0  0  0  0
  172.4870  -16.9410   30.6010 C   0  0  0  0  0  0  0  0  0  0  0  0
  172.1000  -16.6970   31.9350 N   0  0  0  0  0  0  0  0  0  0  0  0
  172.0050  -15.5000   32.5200 N   0  0  0  0  0  0  0  0  0  0  0  0
  172.8160  -15.7360   29.8110 C   0  0  0  0  0  0  0  0  0  0  0  0
  172.7350  -14.4690   30.4170 C   0  0  0  0  0  0  0  0  0  0  0  0
  173.0580  -13.3240   29.6700 C   0  0  0  0  0  0  0  0  0  0  0  0
  173.4380  -13.4550   28.3320 C   0  0  0  0  0  0  0  0  0  0  0  0
  173.5050  -14.7200   27.7380 C   0  0  0  0  0  0  0  0  0  0  0  0
  173.2010  -15.8670   28.4670 C   0  0  0  0  0  0  0  0  0  0  0  0
  172.2960  -14.4240   31.8160 C   0  0  1  0  0  0  0  0  0  0  0  0
  172.0950  -13.1090   32.4920 C   0  0  0  0  0  0  0  0  0  0  0  0
  170.8950  -12.2830   32.0450 C   0  0  0  0  0  0  0  0  0  0  0  0
  169.9970  -12.8200   31.3910 O   0  0  0  0  0  0  0  0  0  0  0  0
  170.8820  -10.9390   32.3750 N   0  0  0  0  0  0  0  0  0  0  0  0
  168.5070  -10.4120   32.2110 C   0  0  0  0  0  0  0  0  0  0  0  0
  171.4510   -8.3400   31.5550 O   0  0  0  0  0  0  0  0  0  0  0  0
  165.8460   -9.9520   32.3760 S   0  0  0  0  0  0  0  0  0  0  0  0
  164.9560   -8.9330   31.9450 O   0  0  0  0  0  0  0  0  0  0  0  0
  165.7650  -10.3420   33.7580 O   0  0  0  0  0  0  0  0  0  0  0  0
  165.6250  -11.3320   31.4930 N   0  0  0  0  0  0  0  0  0  0  0  0
  165.6010  -12.6350   32.1870 C   0  0  0  0  0  0  0  0  0  0  0  0
  164.3450  -13.4650   31.9080 C   0  0  0  0  0  0  0  0  0  0  0  0
  164.5810  -13.5720   29.3920 C   0  0  0  0  0  0  0  0  0  0  0  0
  165.7750  -12.6200   29.2940 C   0  0  0  0  0  0  0  0  0  0  0  0
  163.7120  -15.0902   30.6479 H   0  0  0  0  0  0  0  0  0  0  0  0
  165.4926  -14.9147   30.8074 H   0  0  0  0  0  0  0  0  0  0  0  0
  166.2393  -10.5525   29.6389 H   0  0  0  0  0  0  0  0  0  0  0  0
  164.4942  -10.9609   29.7591 H   0  0  0  0  0  0  0  0  0  0  0  0
  172.8520   -6.8249   31.3243 H   0  0  0  0  0  0  0  0  0  0  0  0
  171.4199   -6.4128   32.3273 H   0  0  0  0  0  0  0  0  0  0  0  0
  171.2606   -6.5372   30.5424 H   0  0  0  0  0  0  0  0  0  0  0  0
  169.2981   -6.7531   31.2140 H   0  0  0  0  0  0  0  0  0  0  0  0
  166.9735   -7.4739   31.5248 H   0  0  0  0  0  0  0  0  0  0  0  0
  173.0126  -12.3433   30.1296 H   0  0  0  0  0  0  0  0  0  0  0  0
  173.6820  -12.5727   27.7515 H   0  0  0  0  0  0  0  0  0  0  0  0
  173.7971  -14.8084   26.6978 H   0  0  0  0  0  0  0  0  0  0  0  0
  173.2606  -16.8454   28.0042 H   0  0  0  0  0  0  0  0  0  0  0  0
  173.3432  -14.4691   32.1496 H   0  0  0  0  0  0  0  0  0  0  0  0
  172.9978  -12.5047   32.3195 H   0  0  0  0  0  0  0  0  0  0  0  0
  171.9833  -13.3021   33.5691 H   0  0  0  0  0  0  0  0  0  0  0  0
  171.6701  -10.5884   32.8810 H   0  0  0  0  0  0  0  0  0  0  0  0
  168.2841  -11.4435   32.4589 H   0  0  0  0  0  0  0  0  0  0  0  0
  165.6610  -12.4515   33.2699 H   0  0  0  0  0  0  0  0  0  0  0  0
  166.4780  -13.2153   31.8642 H   0  0  0  0  0  0  0  0  0  0  0  0
  164.1223  -14.0863   32.7880 H   0  0  0  0  0  0  0  0  0  0  0  0
  163.5012  -12.7861   31.7154 H   0  0  0  0  0  0  0  0  0  0  0  0
  163.6568  -12.9798   29.3197 H   0  0  0  0  0  0  0  0  0  0  0  0
  164.6300  -14.2795   28.5511 H   0  0  0  0  0  0  0  0  0  0  0  0
  166.6519  -13.1028   29.7500 H   0  0  0  0  0  0  0  0  0  0  0  0
  165.9794  -12.4156   28.2327 H   0  0  0  0  0  0  0  0  0  0  0  0
  1 32  1  0  0  0  0
  1 34  1  0  0  0  0
  1 35  1  0  0  0  0
  2 33  1  0  0  0  0
  2 36  1  0  0  0  0
  2 37  1  0  0  0  0
  3  4  2  0  0  0  0
  3 23  1  0  0  0  0
  4 25  1  0  0  0  0
  5 38  1  0  0  0  0
  5 39  1  0  0  0  0
  5 40  1  0  0  0  0
  6  4  1  0  0  0  0
  6 41  1  0  0  0  0
  7  6  2  0  0  0  0
  7 42  1  0  0  0  0
  8  7  1  0  0  0  0
  8 24  2  0  0  0  0
 10  9  2  0  0  0  0
 11 10  1  0  0  0  0
 12 11  2  0  0  0  0
 13 10  1  0  0  0  0
 13 18  1  0  0  0  0
 14 13  2  0  0  0  0
 14 15  1  0  0  0  0
 15 16  2  0  0  0  0
 15 43  1  0  0  0  0
 16 17  1  0  0  0  0
 16 44  1  0  0  0  0
 17 45  1  0  0  0  0
 18 17  2  0  0  0  0
 18 46  1  0  0  0  0
 19 12  1  0  0  0  0
 19 14  1  0  0  0  0
 19 47  1  1  0  0  0
 20 19  1  0  0  0  0
 20 48  1  0  0  0  0
 20 49  1  0  0  0  0
 21 20  1  0  0  0  0
 21 22  2  0  0  0  0
 23 21  1  0  0  0  0
 23 50  1  0  0  0  0
 24  3  1  0  0  0  0
 24 51  1  0  0  0  0
 25  5  1  0  0  0  0
 26  8  1  0  0  0  0
 26 27  2  0  0  0  0
 26 28  2  0  0  0  0
 29  2  1  0  0  0  0
 29 26  1  0  0  0  0
 30 29  1  0  0  0  0
 30 31  1  0  0  0  0
 30 52  1  0  0  0  0
 30 53  1  0  0  0  0
 31  1  1  0  0  0  0
 31 54  1  0  0  0  0
 31 55  1  0  0  0  0
 32 33  1  0  0  0  0
 32 56  1  0  0  0  0
 32 57  1  0  0  0  0
 33 58  1  0  0  0  0
 33 59  1  0  0  0  0
M  END
