5ggk_ligand
 OpenBabel08222323333D

 36 37  0  0  1  0  0  0  0  0999 V2000
  -26.7670  -18.3060  -11.0490 C   0  0  2  0  0  0  0  0  0  0  0  0
  -27.9710  -18.5930  -10.1610 C   0  0  2  0  0  0  0  0  0  0  0  0
  -27.8040  -17.8650   -8.8370 C   0  0  2  0  0  0  0  0  0  0  0  0
  -26.4470  -18.2250   -8.2160 C   0  0  1  0  0  0  0  0  0  0  0  0
  -25.3030  -17.9590   -9.2030 C   0  0  1  0  0  0  0  0  0  0  0  0
  -23.9450  -18.4050   -8.6770 C   0  0  0  0  0  0  0  0  0  0  0  0
  -26.1970  -18.8500  -13.3330 C   0  0  0  0  0  0  0  0  0  0  0  0
  -25.1790  -17.8970  -13.3360 C   0  0  0  0  0  0  0  0  0  0  0  0
  -24.5000  -17.6270  -14.5100 C   0  0  0  0  0  0  0  0  0  0  0  0
  -24.8420  -18.3240  -15.6560 C   0  0  0  0  0  0  0  0  0  0  0  0
  -25.8440  -19.2780  -15.6450 C   0  0  0  0  0  0  0  0  0  0  0  0
  -26.5320  -19.5410  -14.4820 C   0  0  0  0  0  0  0  0  0  0  0  0
  -24.1850  -18.0950  -16.8590 N   0  0  0  0  0  0  0  0  0  0  0  0
  -26.8960  -19.1360  -12.1970 O   0  0  0  0  0  0  0  0  0  0  0  0
  -28.0730  -20.0030   -9.9300 O   0  0  0  0  0  0  0  0  0  0  0  0
  -28.8930  -18.2080   -7.9700 O   0  0  0  0  0  0  0  0  0  0  0  0
  -26.2510  -17.4410   -7.0290 O   0  0  0  0  0  0  0  0  0  0  0  0
  -25.5460  -18.6820  -10.4080 O   0  0  0  0  0  0  0  0  0  0  0  0
  -23.9120  -19.8260   -8.4200 O   0  0  0  0  0  0  0  0  0  0  0  0
  -24.5640  -18.8150  -17.9730 O   0  0  0  0  0  0  0  0  0  0  0  0
  -23.1500  -17.1900  -16.9070 O   0  0  0  0  0  0  0  0  0  0  0  0
  -26.7417  -17.2418  -11.3262 H   0  0  0  0  0  0  0  0  0  0  0  0
  -28.8855  -18.2390  -10.6593 H   0  0  0  0  0  0  0  0  0  0  0  0
  -27.8282  -16.7804   -9.0186 H   0  0  0  0  0  0  0  0  0  0  0  0
  -26.4469  -19.2924   -7.9501 H   0  0  0  0  0  0  0  0  0  0  0  0
  -25.2676  -16.8805   -9.4167 H   0  0  0  0  0  0  0  0  0  0  0  0
  -23.7316  -17.8684   -7.7408 H   0  0  0  0  0  0  0  0  0  0  0  0
  -23.1754  -18.1599   -9.4238 H   0  0  0  0  0  0  0  0  0  0  0  0
  -24.9215  -17.3711  -12.4237 H   0  0  0  0  0  0  0  0  0  0  0  0
  -23.7130  -16.8819  -14.5325 H   0  0  0  0  0  0  0  0  0  0  0  0
  -26.0874  -19.8186  -16.5525 H   0  0  0  0  0  0  0  0  0  0  0  0
  -27.3253  -20.2796  -14.4677 H   0  0  0  0  0  0  0  0  0  0  0  0
  -28.1771  -20.4521  -10.7606 H   0  0  0  0  0  0  0  0  0  0  0  0
  -28.8045  -17.7360   -7.1504 H   0  0  0  0  0  0  0  0  0  0  0  0
  -25.4242  -17.6792   -6.6265 H   0  0  0  0  0  0  0  0  0  0  0  0
  -24.5710  -20.0448   -7.7716 H   0  0  0  0  0  0  0  0  0  0  0  0
  1  2  1  0  0  0  0
  1 18  1  0  0  0  0
  1 22  1  6  0  0  0
  2  3  1  0  0  0  0
  2 15  1  0  0  0  0
  2 23  1  6  0  0  0
  3  4  1  0  0  0  0
  3 16  1  0  0  0  0
  3 24  1  6  0  0  0
  4 17  1  0  0  0  0
  4 25  1  1  0  0  0
  5  4  1  0  0  0  0
  5  6  1  0  0  0  0
  5 26  1  6  0  0  0
  6 19  1  0  0  0  0
  6 27  1  0  0  0  0
  6 28  1  0  0  0  0
  7  8  2  0  0  0  0
  7 12  1  0  0  0  0
  7 14  1  0  0  0  0
  8  9  1  0  0  0  0
  8 29  1  0  0  0  0
  9 10  2  0  0  0  0
  9 30  1  0  0  0  0
 10 11  1  0  0  0  0
 10 13  1  0  0  0  0
 11 12  2  0  0  0  0
 11 31  1  0  0  0  0
 12 32  1  0  0  0  0
 13 20  2  0  0  0  0
 13 21  2  0  0  0  0
 14  1  1  0  0  0  0
 15 33  1  0  0  0  0
 16 34  1  0  0  0  0
 17 35  1  0  0  0  0
 18  5  1  0  0  0  0
 19 36  1  0  0  0  0
M  END
