5ggn_ligand
 OpenBabel08222323333D

 42 43  0  0  1  0  0  0  0  0999 V2000
  -18.3890  -11.9020  -31.3100 C   0  0  0  0  0  0  0  0  0  0  0  0
  -19.0530  -11.3000  -30.0680 C   0  0  0  0  0  0  0  0  0  0  0  0
  -20.2670  -11.3690  -29.8620 O   0  0  0  0  0  0  0  0  0  0  0  0
  -18.2370  -10.6250  -29.1790 N   0  0  0  0  0  0  0  0  0  0  0  0
  -18.7230   -9.9960  -27.9550 C   0  0  2  0  0  0  0  0  0  0  0  0
  -18.0600   -8.6820  -27.7320 C   0  0  1  0  0  0  0  0  0  0  0  0
  -18.4040   -7.7670  -28.8480 O   0  0  0  0  0  0  0  0  0  0  0  0
  -18.4540   -8.0890  -26.4480 C   0  0  2  0  0  0  0  0  0  0  0  0
  -17.7000   -6.8410  -26.2540 O   0  0  0  0  0  0  0  0  0  0  0  0
  -18.1660   -9.0130  -25.3080 C   0  0  1  0  0  0  0  0  0  0  0  0
  -18.6270   -8.4770  -23.9790 C   0  0  0  0  0  0  0  0  0  0  0  0
  -20.0660   -8.2370  -23.9360 O   0  0  0  0  0  0  0  0  0  0  0  0
  -18.9010  -10.2540  -25.5430 O   0  0  0  0  0  0  0  0  0  0  0  0
  -18.4730  -10.9650  -26.7740 C   0  0  1  0  0  0  0  0  0  0  0  0
  -19.2950  -12.0010  -26.9260 O   0  0  0  0  0  0  0  0  0  0  0  0
  -19.0030  -13.1540  -26.1860 C   0  0  0  0  0  0  0  0  0  0  0  0
  -18.0710  -13.1880  -25.1630 C   0  0  0  0  0  0  0  0  0  0  0  0
  -17.8380  -14.3880  -24.4830 C   0  0  0  0  0  0  0  0  0  0  0  0
  -18.5560  -15.5170  -24.8250 C   0  0  0  0  0  0  0  0  0  0  0  0
  -18.3170  -16.7480  -24.1240 N   0  0  0  0  0  0  0  0  0  0  0  0
  -17.3040  -16.7790  -23.2100 O   0  0  0  0  0  0  0  0  0  0  0  0
  -18.9880  -17.7260  -24.3460 O   0  0  0  0  0  0  0  0  0  0  0  0
  -19.5020  -15.4650  -25.8600 C   0  0  0  0  0  0  0  0  0  0  0  0
  -19.7250  -14.2710  -26.5330 C   0  0  0  0  0  0  0  0  0  0  0  0
  -17.3055  -11.7155  -31.2733 H   0  0  0  0  0  0  0  0  0  0  0  0
  -18.8107  -11.4368  -32.2132 H   0  0  0  0  0  0  0  0  0  0  0  0
  -18.5737  -12.9861  -31.3355 H   0  0  0  0  0  0  0  0  0  0  0  0
  -17.2605  -10.5645  -29.3860 H   0  0  0  0  0  0  0  0  0  0  0  0
  -19.8055   -9.8245  -28.0488 H   0  0  0  0  0  0  0  0  0  0  0  0
  -16.9709   -8.8364  -27.7223 H   0  0  0  0  0  0  0  0  0  0  0  0
  -17.9824   -6.9271  -28.7088 H   0  0  0  0  0  0  0  0  0  0  0  0
  -19.5317   -7.8695  -26.4685 H   0  0  0  0  0  0  0  0  0  0  0  0
  -17.9475   -6.4484  -25.4251 H   0  0  0  0  0  0  0  0  0  0  0  0
  -17.0844   -9.2090  -25.2664 H   0  0  0  0  0  0  0  0  0  0  0  0
  -18.1062   -7.5282  -23.7825 H   0  0  0  0  0  0  0  0  0  0  0  0
  -18.3685   -9.2060  -23.1969 H   0  0  0  0  0  0  0  0  0  0  0  0
  -20.3002   -7.6024  -24.6031 H   0  0  0  0  0  0  0  0  0  0  0  0
  -17.4212  -11.2826  -26.7211 H   0  0  0  0  0  0  0  0  0  0  0  0
  -17.5258  -12.2914  -24.8909 H   0  0  0  0  0  0  0  0  0  0  0  0
  -17.0980  -14.4315  -23.6920 H   0  0  0  0  0  0  0  0  0  0  0  0
  -20.0574  -16.3548  -26.1336 H   0  0  0  0  0  0  0  0  0  0  0  0
  -20.4626  -14.2202  -27.3257 H   0  0  0  0  0  0  0  0  0  0  0  0
  1  2  1  0  0  0  0
  1 25  1  0  0  0  0
  1 26  1  0  0  0  0
  1 27  1  0  0  0  0
  2  3  2  0  0  0  0
  2  4  1  0  0  0  0
  4  5  1  0  0  0  0
  4 28  1  0  0  0  0
  5  6  1  0  0  0  0
  5 14  1  0  0  0  0
  5 29  1  6  0  0  0
  6  7  1  0  0  0  0
  6  8  1  0  0  0  0
  6 30  1  1  0  0  0
  7 31  1  0  0  0  0
  8  9  1  0  0  0  0
  8 10  1  0  0  0  0
  8 32  1  6  0  0  0
  9 33  1  0  0  0  0
 10 11  1  0  0  0  0
 10 13  1  0  0  0  0
 10 34  1  1  0  0  0
 11 12  1  0  0  0  0
 11 35  1  0  0  0  0
 11 36  1  0  0  0  0
 12 37  1  0  0  0  0
 13 14  1  0  0  0  0
 14 15  1  0  0  0  0
 14 38  1  1  0  0  0
 15 16  1  0  0  0  0
 16 17  2  0  0  0  0
 16 24  1  0  0  0  0
 17 18  1  0  0  0  0
 17 39  1  0  0  0  0
 18 19  2  0  0  0  0
 18 40  1  0  0  0  0
 19 20  1  0  0  0  0
 19 23  1  0  0  0  0
 20 21  2  0  0  0  0
 20 22  2  0  0  0  0
 23 24  2  0  0  0  0
 23 41  1  0  0  0  0
 24 42  1  0  0  0  0
M  END
