5gub_ligand
 OpenBabel08222323333D

 46 47  0  0  1  0  0  0  0  0999 V2000
  -17.6390  -17.8290    8.7580 C   0  0  2  0  0  0  0  0  0  0  0  0
  -17.8460  -17.9030    7.2420 C   0  0  1  0  0  0  0  0  0  0  0  0
  -17.4700  -16.5900    6.5760 C   0  0  2  0  0  0  0  0  0  0  0  0
  -18.2200  -15.4450    7.2550 C   0  0  2  0  0  0  0  0  0  0  0  0
  -18.0100  -15.5130    8.7650 C   0  0  1  0  0  0  0  0  0  0  0  0
  -18.7750  -14.4110    9.4950 C   0  0  0  0  0  0  0  0  0  0  0  0
  -17.6970  -20.0140    6.0650 C   0  0  0  0  0  0  0  0  0  0  0  0
  -16.7700  -21.1150    5.6330 C   0  0  0  0  0  0  0  0  0  0  0  0
  -17.0900  -18.9970    6.6620 N   0  0  0  0  0  0  0  0  0  0  0  0
  -18.0830  -19.0370    9.3330 O   0  0  0  0  0  0  0  0  0  0  0  0
  -17.8560  -16.7020    5.2210 O   0  0  0  0  0  0  0  0  0  0  0  0
  -19.6070  -15.4910    6.9530 O   0  0  0  0  0  0  0  0  0  0  0  0
  -18.4100  -16.7780    9.2890 O   0  0  0  0  0  0  0  0  0  0  0  0
  -18.4580  -14.5160   10.8740 O   0  0  0  0  0  0  0  0  0  0  0  0
  -18.9260  -20.0410    5.8730 O   0  0  0  0  0  0  0  0  0  0  0  0
  -16.9680  -15.9740    4.3820 C   0  0  1  0  0  0  0  0  0  0  0  0
  -16.9430  -16.6260    3.0050 C   0  0  1  0  0  0  0  0  0  0  0  0
  -16.0250  -15.8480    2.0750 C   0  0  2  0  0  0  0  0  0  0  0  0
  -16.3480  -14.3690    2.1640 C   0  0  0  0  0  0  0  0  0  0  0  0
  -17.0300  -13.8480    3.1930 C   0  0  0  0  0  0  0  0  0  0  0  0
  -17.3850  -12.4290    3.2600 C   0  0  0  0  0  0  0  0  0  0  0  0
  -16.4660  -17.9810    3.1260 O   0  0  0  0  0  0  0  0  0  0  0  0
  -16.2360  -16.2850    0.7190 O   0  0  0  0  0  0  0  0  0  0  0  0
  -17.4720  -14.6520    4.3040 O   0  0  0  0  0  0  0  0  0  0  0  0
  -16.9070  -11.6290    2.4310 O   0  5  0  0  0  0  0  0  0  0  0  0
  -18.1850  -12.0680    4.1600 O   0  0  0  0  0  0  0  0  0  0  0  0
  -16.5747  -17.6680    8.9847 H   0  0  0  0  0  0  0  0  0  0  0  0
  -18.9138  -18.0885    7.0542 H   0  0  0  0  0  0  0  0  0  0  0  0
  -16.3861  -16.4177    6.6496 H   0  0  0  0  0  0  0  0  0  0  0  0
  -17.8139  -14.4924    6.8841 H   0  0  0  0  0  0  0  0  0  0  0  0
  -16.9363  -15.3784    8.9627 H   0  0  0  0  0  0  0  0  0  0  0  0
  -19.8570  -14.5430    9.3469 H   0  0  0  0  0  0  0  0  0  0  0  0
  -18.4702  -13.4255    9.1132 H   0  0  0  0  0  0  0  0  0  0  0  0
  -17.3506  -21.9146    5.1497 H   0  0  0  0  0  0  0  0  0  0  0  0
  -16.2481  -21.5210    6.5121 H   0  0  0  0  0  0  0  0  0  0  0  0
  -16.0328  -20.7155    4.9210 H   0  0  0  0  0  0  0  0  0  0  0  0
  -16.0914  -18.9840    6.7134 H   0  0  0  0  0  0  0  0  0  0  0  0
  -17.9743  -18.9964   10.2759 H   0  0  0  0  0  0  0  0  0  0  0  0
  -19.7265  -15.4481    6.0116 H   0  0  0  0  0  0  0  0  0  0  0  0
  -17.5218  -14.4058   10.9919 H   0  0  0  0  0  0  0  0  0  0  0  0
  -15.9537  -15.9678    4.8076 H   0  0  0  0  0  0  0  0  0  0  0  0
  -17.9609  -16.6328    2.5880 H   0  0  0  0  0  0  0  0  0  0  0  0
  -14.9770  -16.0182    2.3626 H   0  0  0  0  0  0  0  0  0  0  0  0
  -16.0146  -13.7084    1.3650 H   0  0  0  0  0  0  0  0  0  0  0  0
  -17.0396  -18.4667    3.7069 H   0  0  0  0  0  0  0  0  0  0  0  0
  -15.6676  -15.7941    0.1372 H   0  0  0  0  0  0  0  0  0  0  0  0
  1 10  1  0  0  0  0
  1 13  1  0  0  0  0
  1 27  1  1  0  0  0
  2  1  1  0  0  0  0
  2  3  1  0  0  0  0
  2 28  1  6  0  0  0
  3  4  1  0  0  0  0
  3 11  1  0  0  0  0
  3 29  1  1  0  0  0
  4  5  1  0  0  0  0
  4 12  1  0  0  0  0
  4 30  1  6  0  0  0
  5  6  1  0  0  0  0
  5 31  1  1  0  0  0
  6 14  1  0  0  0  0
  6 32  1  0  0  0  0
  6 33  1  0  0  0  0
  7  8  1  0  0  0  0
  7  9  1  0  0  0  0
  7 15  2  0  0  0  0
  8 34  1  0  0  0  0
  8 35  1  0  0  0  0
  8 36  1  0  0  0  0
  9  2  1  0  0  0  0
  9 37  1  0  0  0  0
 10 38  1  0  0  0  0
 11 16  1  0  0  0  0
 12 39  1  0  0  0  0
 13  5  1  0  0  0  0
 14 40  1  0  0  0  0
 16 17  1  0  0  0  0
 16 24  1  0  0  0  0
 16 41  1  1  0  0  0
 17 18  1  0  0  0  0
 17 22  1  0  0  0  0
 17 42  1  6  0  0  0
 18 19  1  0  0  0  0
 18 23  1  0  0  0  0
 18 43  1  1  0  0  0
 19 20  2  0  0  0  0
 19 44  1  0  0  0  0
 20 21  1  0  0  0  0
 20 24  1  0  0  0  0
 21 25  1  0  0  0  0
 21 26  2  0  0  0  0
 22 45  1  0  0  0  0
 23 46  1  0  0  0  0
M  CHG  1  25  -1
M  END
