5h5q_ligand
 OpenBabel08222323333D

244246  0  0  1  0  0  0  0  0999 V2000
  -13.0970   32.0800  -28.2400 C   0  0  0  0  0  0  0  0  0  0  0  0
  -12.9190   31.8430  -29.4340 O   0  0  0  0  0  0  0  0  0  0  0  0
  -14.4790   32.2900  -27.6480 C   0  0  0  0  0  0  0  0  0  0  0  0
  -12.0800   32.2080  -27.3950 N   0  0  0  0  0  0  0  0  0  0  0  0
  -10.6900   31.9220  -27.8710 C   0  0  2  0  0  0  0  0  0  0  0  0
  -10.2880   30.4850  -27.5580 C   0  0  0  0  0  0  0  0  0  0  0  0
  -10.6470   29.9170  -26.5200 O   0  0  0  0  0  0  0  0  0  0  0  0
   -9.6760   32.9000  -27.2800 C   0  0  0  0  0  0  0  0  0  0  0  0
  -10.0170   34.6300  -27.5880 S   0  0  0  0  0  0  0  0  0  0  0  0
   -9.5350   29.8960  -28.4810 N   0  0  0  0  0  0  0  0  0  0  0  0
   -9.0680   28.5160  -28.3990 C   0  0  2  0  0  0  0  0  0  0  0  0
   -7.5770   28.4810  -28.6350 C   0  0  0  0  0  0  0  0  0  0  0  0
   -7.0930   29.1240  -29.5720 O   0  0  0  0  0  0  0  0  0  0  0  0
   -9.7020   27.6710  -29.5200 C   0  0  0  0  0  0  0  0  0  0  0  0
  -11.1960   27.7780  -29.7030 C   0  0  0  0  0  0  0  0  0  0  0  0
  -11.8840   27.2660  -28.4740 C   0  0  0  0  0  0  0  0  0  0  0  0
  -11.2630   26.0170  -28.0540 N   0  0  0  0  0  0  0  0  0  0  0  0
  -11.1990   25.5480  -26.8130 C   0  0  0  0  0  3  0  0  0  0  0  0
  -10.5500   24.4110  -26.6010 N   0  0  0  0  0  0  0  0  0  0  0  0
  -11.7700   26.1860  -25.7910 N   0  0  0  0  0  0  0  0  0  0  0  0
   -6.8690   27.6840  -27.8360 N   0  0  0  0  0  0  0  0  0  0  0  0
   -5.4610   27.3950  -28.0650 C   0  0  2  0  0  0  0  0  0  0  0  0
   -5.3810   25.9480  -28.5150 C   0  0  0  0  0  0  0  0  0  0  0  0
   -5.8780   25.0480  -27.8450 O   0  0  0  0  0  0  0  0  0  0  0  0
   -4.6180   27.6080  -26.7880 C   0  0  0  0  0  0  0  0  0  0  0  0
   -3.1660   27.2220  -27.0470 C   0  0  0  0  0  0  0  0  0  0  0  0
   -4.7080   29.0630  -26.3280 C   0  0  0  0  0  0  0  0  0  0  0  0
   -4.7560   25.7170  -29.6610 N   0  0  0  0  0  0  0  0  0  0  0  0
   -4.6640   24.3600  -30.2010 C   0  0  2  0  0  0  0  0  0  0  0  0
   -3.5440   23.5890  -29.5260 C   0  0  0  0  0  0  0  0  0  0  0  0
   -2.8380   24.0890  -28.6540 O   0  0  0  0  0  0  0  0  0  0  0  0
   -4.5630   24.3680  -31.7410 C   0  0  0  0  0  0  0  0  0  0  0  0
   -3.2750   24.9790  -32.2760 C   0  0  0  0  0  0  0  0  0  0  0  0
   -2.2600   25.0720  -31.5730 O   0  5  0  0  0  0  0  0  0  0  0  0
   -3.2620   25.3540  -33.4910 O   0  0  0  0  0  0  0  0  0  0  0  0
   -3.3740   22.3410  -29.9400 N   0  0  0  0  0  0  0  0  0  0  0  0
   -2.3600   21.4950  -29.3420 C   0  0  2  0  0  0  0  0  0  0  0  0
   -0.9410   22.0070  -29.5060 C   0  0  0  0  0  0  0  0  0  0  0  0
   -0.0590   21.6950  -28.7100 O   0  0  0  0  0  0  0  0  0  0  0  0
   -2.4370   20.0900  -29.9250 C   0  0  0  0  0  0  0  0  0  0  0  0
   -2.9250   18.9610  -29.0720 C   0  0  0  0  0  0  0  0  0  0  0  0
   -2.6720   17.6530  -29.7890 C   0  0  0  0  0  0  0  0  0  0  0  0
   -2.2190   18.9430  -27.7340 C   0  0  0  0  0  0  0  0  0  0  0  0
   -0.7090   22.7800  -30.5690 N   0  0  0  0  0  0  0  0  0  0  0  0
    0.6020   23.3080  -30.8560 C   0  0  2  0  0  0  0  0  0  0  0  0
    0.8530   24.6560  -30.2140 C   0  0  0  0  0  0  0  0  0  0  0  0
    1.9480   25.1730  -30.3090 O   0  0  0  0  0  0  0  0  0  0  0  0
    0.8070   23.4010  -32.3710 C   0  0  0  0  0  0  0  0  0  0  0  0
    0.6590   22.0680  -33.1010 C   0  0  0  0  0  0  0  0  0  0  0  0
    1.5120   20.9780  -32.5040 C   0  0  0  0  0  0  0  0  0  0  0  0
    2.6590   21.2170  -32.1060 O   0  0  0  0  0  0  0  0  0  0  0  0
    0.9530   19.7810  -32.4060 N   0  0  0  0  0  0  0  0  0  0  0  0
   -0.1630   25.2350  -29.5690 N   0  0  0  0  0  0  0  0  0  0  0  0
   -0.0100   26.4760  -28.8240 C   0  0  0  0  0  0  0  0  0  0  0  0
   -0.4410   27.7380  -29.5500 C   0  0  0  0  0  0  0  0  0  0  0  0
   -0.2720   28.8180  -29.0140 O   0  0  0  0  0  0  0  0  0  0  0  0
   -0.9940   27.6160  -30.7570 N   0  0  0  0  0  0  0  0  0  0  0  0
   -1.5060   28.7880  -31.4900 C   0  0  2  0  0  0  0  0  0  0  0  0
   -2.9050   29.1280  -30.9980 C   0  0  0  0  0  0  0  0  0  0  0  0
   -3.6800   28.2220  -30.6840 O   0  0  0  0  0  0  0  0  0  0  0  0
   -1.5640   28.5060  -32.9970 C   0  0  0  0  0  0  0  0  0  0  0  0
   -0.2340   28.2020  -33.5850 C   0  0  0  0  0  0  0  0  0  0  0  0
    0.2850   26.9840  -33.8490 C   0  0  0  0  0  0  0  0  0  0  0  0
    0.7650   29.1480  -33.9430 C   0  0  0  0  0  0  0  0  0  0  0  0
    1.5490   27.1000  -34.3690 N   0  0  0  0  0  0  0  0  0  0  0  0
    1.8720   28.4200  -34.4330 C   0  0  0  0  0  0  0  0  0  0  0  0
    0.8440   30.5470  -33.8890 C   0  0  0  0  0  0  0  0  0  0  0  0
    3.0390   29.0400  -34.8790 C   0  0  0  0  0  0  0  0  0  0  0  0
    2.0120   31.1620  -34.3170 C   0  0  0  0  0  0  0  0  0  0  0  0
    3.0910   30.4060  -34.8220 C   0  0  0  0  0  0  0  0  0  0  0  0
   -3.2320   30.4200  -30.9680 N   0  0  0  0  0  0  0  0  0  0  0  0
   -4.4970   30.8950  -30.4100 C   0  0  2  0  0  0  0  0  0  0  0  0
   -5.3390   31.5640  -31.4790 C   0  0  0  0  0  0  0  0  0  0  0  0
   -4.8270   32.3330  -32.2840 O   0  0  0  0  0  0  0  0  0  0  0  0
   -4.2100   31.8730  -29.2810 C   0  0  0  0  0  0  0  0  0  0  0  0
   -5.4320   32.3390  -28.4980 C   0  0  0  0  0  0  0  0  0  0  0  0
   -4.9760   33.1160  -27.2790 C   0  0  0  0  0  0  0  0  0  0  0  0
   -6.0450   33.4620  -26.3470 N   0  0  0  0  0  0  0  0  0  0  0  0
   -6.6180   34.6540  -26.1900 C   0  0  0  0  0  3  0  0  0  0  0  0
   -6.2940   35.7000  -26.9520 N   0  0  0  0  0  0  0  0  0  0  0  0
   -7.5180   34.7990  -25.2320 N   0  0  0  0  0  0  0  0  0  0  0  0
   -6.6370   31.2650  -31.4920 N   0  0  0  0  0  0  0  0  0  0  0  0
   -7.5870   31.8980  -32.4080 C   0  0  2  0  0  0  0  0  0  0  0  0
   -8.8370   32.2940  -31.6400 C   0  0  0  0  0  0  0  0  0  0  0  0
   -9.3220   31.5580  -30.7800 O   0  0  0  0  0  0  0  0  0  0  0  0
   -7.9890   30.9390  -33.5200 C   0  0  0  0  0  0  0  0  0  0  0  0
   -6.9150   30.6290  -34.5640 C   0  0  0  0  0  0  0  0  0  0  0  0
   -7.1360   29.2320  -35.1250 C   0  0  0  0  0  0  0  0  0  0  0  0
   -7.1320   28.4510  -33.9230 N   0  0  0  0  0  0  0  0  0  0  0  0
   -6.1030   27.8200  -33.3830 C   0  0  0  0  0  3  0  0  0  0  0  0
   -4.9490   27.6110  -34.0320 N   0  0  0  0  0  0  0  0  0  0  0  0
   -6.3170   27.3030  -32.1920 N   0  0  0  0  0  0  0  0  0  0  0  0
   -9.3660   33.4680  -31.9710 N   0  0  0  0  0  0  0  0  0  0  0  0
  -10.5340   34.0340  -31.2960 C   0  0  2  0  0  0  0  0  0  0  0  0
  -11.6390   34.2760  -32.2990 C   0  0  0  0  0  0  0  0  0  0  0  0
  -11.4530   34.0680  -33.5100 O   0  0  0  0  0  0  0  0  0  0  0  0
  -10.1620   35.3390  -30.5950 C   0  0  0  0  0  0  0  0  0  0  0  0
   -8.9460   35.1680  -29.2820 S   0  0  0  0  0  0  0  0  0  0  0  0
  -12.7880   34.7350  -31.8040 N   0  0  0  0  0  0  0  0  0  0  0  0
  -13.9340   35.0610  -32.6550 C   0  0  2  0  0  0  0  0  0  0  0  0
  -13.5960   36.2470  -33.5520 C   0  0  0  0  0  0  0  0  0  0  0  0
  -12.9880   37.2200  -33.1030 O   0  0  0  0  0  0  0  0  0  0  0  0
  -15.1550   35.4060  -31.8040 C   0  0  0  0  0  0  0  0  0  0  0  0
  -15.6490   34.2700  -30.9300 C   0  0  0  0  0  0  0  0  0  0  0  0
  -16.7530   34.7200  -29.9840 C   0  0  0  0  0  0  0  0  0  0  0  0
  -18.0600   34.7600  -30.6380 N   0  0  0  0  0  0  0  0  0  0  0  0
  -19.2180   35.0340  -30.0290 C   0  0  0  0  0  3  0  0  0  0  0  0
  -19.2680   35.3270  -28.7290 N   0  0  0  0  0  0  0  0  0  0  0  0
  -20.3470   35.0230  -30.7360 N   0  0  0  0  0  0  0  0  0  0  0  0
  -13.9980   36.1470  -34.8220 N   0  0  0  0  0  0  0  0  0  0  0  0
  -13.7860   37.1790  -35.8390 C   0  0  2  0  0  0  0  0  0  0  0  0
  -15.0890   37.9400  -36.1240 C   0  0  0  0  0  0  0  0  0  0  0  0
  -16.1380   37.6310  -35.5280 O   0  0  0  0  0  0  0  0  0  0  0  0
  -13.2800   36.5300  -37.1320 C   0  0  0  0  0  0  0  0  0  0  0  0
  -11.8990   35.9030  -37.0350 C   0  0  0  0  0  0  0  0  0  0  0  0
  -11.4560   35.3540  -38.3840 C   0  0  0  0  0  0  0  0  0  0  0  0
  -12.3220   34.2580  -38.8430 N   0  0  0  0  0  0  0  0  0  0  0  0
  -13.2830   34.3330  -39.7720 C   0  0  0  0  0  3  0  0  0  0  0  0
  -13.5600   35.4660  -40.4210 N   0  0  0  0  0  0  0  0  0  0  0  0
  -13.9810   33.2380  -40.0680 N   0  0  0  0  0  0  0  0  0  0  0  0
  -15.0220   38.9750  -36.9660 N   0  0  0  0  0  0  0  0  0  0  0  0
  -14.3898   32.4862  -26.5693 H   0  0  0  0  0  0  0  0  0  0  0  0
  -15.0872   31.3874  -27.8074 H   0  0  0  0  0  0  0  0  0  0  0  0
  -14.9613   33.1485  -28.1382 H   0  0  0  0  0  0  0  0  0  0  0  0
  -12.2415   32.4927  -26.4501 H   0  0  0  0  0  0  0  0  0  0  0  0
  -10.6792   32.0463  -28.9639 H   0  0  0  0  0  0  0  0  0  0  0  0
   -8.6894   32.6665  -27.7066 H   0  0  0  0  0  0  0  0  0  0  0  0
   -9.6502   32.7469  -26.1910 H   0  0  0  0  0  0  0  0  0  0  0  0
   -9.2717   30.4326  -29.2827 H   0  0  0  0  0  0  0  0  0  0  0  0
   -9.3154   28.0952  -27.4133 H   0  0  0  0  0  0  0  0  0  0  0  0
   -9.4688   26.6164  -29.3117 H   0  0  0  0  0  0  0  0  0  0  0  0
   -9.2303   27.9706  -30.4674 H   0  0  0  0  0  0  0  0  0  0  0  0
  -11.5034   27.1787  -30.5727 H   0  0  0  0  0  0  0  0  0  0  0  0
  -11.4716   28.8302  -29.8668 H   0  0  0  0  0  0  0  0  0  0  0  0
  -12.9471   27.0905  -28.6952 H   0  0  0  0  0  0  0  0  0  0  0  0
  -11.7950   28.0089  -27.6677 H   0  0  0  0  0  0  0  0  0  0  0  0
  -10.8315   25.4415  -28.7912 H   0  0  0  0  0  0  0  0  0  0  0  0
  -10.4852   24.0249  -25.6483 H   0  0  0  0  0  0  0  0  0  0  0  0
  -10.1108   23.9140  -27.3891 H   0  0  0  0  0  0  0  0  0  0  0  0
  -12.2747   27.0692  -25.9525 H   0  0  0  0  0  0  0  0  0  0  0  0
  -11.7064   25.7957  -24.8399 H   0  0  0  0  0  0  0  0  0  0  0  0
   -7.3228   27.2680  -27.0480 H   0  0  0  0  0  0  0  0  0  0  0  0
   -5.0753   28.0531  -28.8575 H   0  0  0  0  0  0  0  0  0  0  0  0
   -5.0168   26.9628  -25.9914 H   0  0  0  0  0  0  0  0  0  0  0  0
   -2.5763   27.3778  -26.1316 H   0  0  0  0  0  0  0  0  0  0  0  0
   -2.7592   27.8467  -27.8559 H   0  0  0  0  0  0  0  0  0  0  0  0
   -3.1148   26.1631  -27.3403 H   0  0  0  0  0  0  0  0  0  0  0  0
   -5.7606   29.3254  -26.1456 H   0  0  0  0  0  0  0  0  0  0  0  0
   -4.2961   29.7203  -27.1079 H   0  0  0  0  0  0  0  0  0  0  0  0
   -4.1322   29.1903  -25.3994 H   0  0  0  0  0  0  0  0  0  0  0  0
   -4.3431   26.4779  -30.1616 H   0  0  0  0  0  0  0  0  0  0  0  0
   -5.6026   23.8448  -29.9490 H   0  0  0  0  0  0  0  0  0  0  0  0
   -5.4106   24.9446  -32.1399 H   0  0  0  0  0  0  0  0  0  0  0  0
   -4.6264   23.3291  -32.0968 H   0  0  0  0  0  0  0  0  0  0  0  0
   -3.9512   21.9796  -30.6723 H   0  0  0  0  0  0  0  0  0  0  0  0
   -2.5729   21.4387  -28.2643 H   0  0  0  0  0  0  0  0  0  0  0  0
   -1.4217   19.8251  -30.2552 H   0  0  0  0  0  0  0  0  0  0  0  0
   -3.1044   20.1425  -30.7978 H   0  0  0  0  0  0  0  0  0  0  0  0
   -4.0054   19.0811  -28.9037 H   0  0  0  0  0  0  0  0  0  0  0  0
   -3.0287   16.8189  -29.1669 H   0  0  0  0  0  0  0  0  0  0  0  0
   -1.5936   17.5382  -29.9728 H   0  0  0  0  0  0  0  0  0  0  0  0
   -3.2099   17.6508  -30.7485 H   0  0  0  0  0  0  0  0  0  0  0  0
   -2.4013   19.8931  -27.2104 H   0  0  0  0  0  0  0  0  0  0  0  0
   -1.1382   18.8127  -27.8914 H   0  0  0  0  0  0  0  0  0  0  0  0
   -2.6042   18.1103  -27.1273 H   0  0  0  0  0  0  0  0  0  0  0  0
   -1.4662   22.9994  -31.1843 H   0  0  0  0  0  0  0  0  0  0  0  0
    1.3422   22.6026  -30.4505 H   0  0  0  0  0  0  0  0  0  0  0  0
    1.8191   23.7882  -32.5599 H   0  0  0  0  0  0  0  0  0  0  0  0
    0.0640   24.1026  -32.7781 H   0  0  0  0  0  0  0  0  0  0  0  0
    0.9524   22.2081  -34.1518 H   0  0  0  0  0  0  0  0  0  0  0  0
   -0.3947   21.7559  -33.0529 H   0  0  0  0  0  0  0  0  0  0  0  0
    1.4700   19.0180  -32.0180 H   0  0  0  0  0  0  0  0  0  0  0  0
    0.0141   19.6404  -32.7201 H   0  0  0  0  0  0  0  0  0  0  0  0
   -1.0627   24.7996  -29.5990 H   0  0  0  0  0  0  0  0  0  0  0  0
    1.0528   26.5836  -28.5614 H   0  0  0  0  0  0  0  0  0  0  0  0
   -0.6084   26.3941  -27.9047 H   0  0  0  0  0  0  0  0  0  0  0  0
   -1.0629   26.7098  -31.1741 H   0  0  0  0  0  0  0  0  0  0  0  0
   -0.8380   29.6430  -31.3089 H   0  0  0  0  0  0  0  0  0  0  0  0
   -1.9763   29.3913  -33.5032 H   0  0  0  0  0  0  0  0  0  0  0  0
   -2.2268   27.6447  -33.1667 H   0  0  0  0  0  0  0  0  0  0  0  0
   -0.2288   26.0400  -33.6734 H   0  0  0  0  0  0  0  0  0  0  0  0
    2.1526   26.3185  -34.6620 H   0  0  0  0  0  0  0  0  0  0  0  0
    0.0110   31.1351  -33.5210 H   0  0  0  0  0  0  0  0  0  0  0  0
    3.8739   28.4610  -35.2568 H   0  0  0  0  0  0  0  0  0  0  0  0
    2.0969   32.2413  -34.2624 H   0  0  0  0  0  0  0  0  0  0  0  0
    3.9799   30.9182  -35.1722 H   0  0  0  0  0  0  0  0  0  0  0  0
   -2.5886   31.0886  -31.3408 H   0  0  0  0  0  0  0  0  0  0  0  0
   -5.0541   30.0361  -30.0077 H   0  0  0  0  0  0  0  0  0  0  0  0
   -3.7254   32.7602  -29.7146 H   0  0  0  0  0  0  0  0  0  0  0  0
   -3.5201   31.3859  -28.5762 H   0  0  0  0  0  0  0  0  0  0  0  0
   -6.0196   31.4656  -28.1789 H   0  0  0  0  0  0  0  0  0  0  0  0
   -6.0528   32.9857  -29.1354 H   0  0  0  0  0  0  0  0  0  0  0  0
   -4.5045   34.0486  -27.6225 H   0  0  0  0  0  0  0  0  0  0  0  0
   -4.2348   32.5070  -26.7408 H   0  0  0  0  0  0  0  0  0  0  0  0
   -6.3939   32.7020  -25.7457 H   0  0  0  0  0  0  0  0  0  0  0  0
   -6.7568   36.6081  -26.8038 H   0  0  0  0  0  0  0  0  0  0  0  0
   -5.5810   35.5994  -27.6885 H   0  0  0  0  0  0  0  0  0  0  0  0
   -7.7734   33.9961  -24.6395 H   0  0  0  0  0  0  0  0  0  0  0  0
   -7.9636   35.7148  -25.0783 H   0  0  0  0  0  0  0  0  0  0  0  0
   -6.9768   30.5790  -30.8486 H   0  0  0  0  0  0  0  0  0  0  0  0
   -7.1234   32.7931  -32.8482 H   0  0  0  0  0  0  0  0  0  0  0  0
   -8.8513   31.3759  -34.0449 H   0  0  0  0  0  0  0  0  0  0  0  0
   -8.2871   29.9889  -33.0527 H   0  0  0  0  0  0  0  0  0  0  0  0
   -5.9218   30.6818  -34.0942 H   0  0  0  0  0  0  0  0  0  0  0  0
   -6.9744   31.3645  -35.3797 H   0  0  0  0  0  0  0  0  0  0  0  0
   -6.3217   28.9351  -35.8023 H   0  0  0  0  0  0  0  0  0  0  0  0
   -8.0981   29.1561  -35.6528 H   0  0  0  0  0  0  0  0  0  0  0  0
   -8.0301   28.3726  -33.4248 H   0  0  0  0  0  0  0  0  0  0  0  0
   -4.1780   27.1132  -33.5644 H   0  0  0  0  0  0  0  0  0  0  0  0
   -4.8332   27.9482  -34.9983 H   0  0  0  0  0  0  0  0  0  0  0  0
   -7.2103   27.4748  -31.7089 H   0  0  0  0  0  0  0  0  0  0  0  0
   -5.5912   26.7265  -31.7428 H   0  0  0  0  0  0  0  0  0  0  0  0
   -8.9464   33.9877  -32.7152 H   0  0  0  0  0  0  0  0  0  0  0  0
  -10.8899   33.3168  -30.5417 H   0  0  0  0  0  0  0  0  0  0  0  0
  -11.0773   35.7672  -30.1603 H   0  0  0  0  0  0  0  0  0  0  0  0
   -9.7566   36.0294  -31.3493 H   0  0  0  0  0  0  0  0  0  0  0  0
  -12.8705   34.8614  -30.8154 H   0  0  0  0  0  0  0  0  0  0  0  0
  -14.1698   34.1894  -33.2832 H   0  0  0  0  0  0  0  0  0  0  0  0
  -15.9721   35.7019  -32.4783 H   0  0  0  0  0  0  0  0  0  0  0  0
  -14.8925   36.2525  -31.1524 H   0  0  0  0  0  0  0  0  0  0  0  0
  -14.8065   33.8861  -30.3361 H   0  0  0  0  0  0  0  0  0  0  0  0
  -16.0383   33.4685  -31.5750 H   0  0  0  0  0  0  0  0  0  0  0  0
  -16.5122   35.7269  -29.6124 H   0  0  0  0  0  0  0  0  0  0  0  0
  -16.8019   34.0188  -29.1379 H   0  0  0  0  0  0  0  0  0  0  0  0
  -18.0910   34.5613  -31.6482 H   0  0  0  0  0  0  0  0  0  0  0  0
  -20.1726   35.5346  -28.2823 H   0  0  0  0  0  0  0  0  0  0  0  0
  -18.4020   35.3457  -28.1716 H   0  0  0  0  0  0  0  0  0  0  0  0
  -20.3232   34.7984  -31.7409 H   0  0  0  0  0  0  0  0  0  0  0  0
  -21.2438   35.2391  -30.2777 H   0  0  0  0  0  0  0  0  0  0  0  0
  -14.4753   35.3122  -35.0963 H   0  0  0  0  0  0  0  0  0  0  0  0
  -13.0308   37.8900  -35.4727 H   0  0  0  0  0  0  0  0  0  0  0  0
  -13.2500   37.3034  -37.9136 H   0  0  0  0  0  0  0  0  0  0  0  0
  -13.9927   35.7437  -37.4214 H   0  0  0  0  0  0  0  0  0  0  0  0
  -11.9267   35.0819  -36.3035 H   0  0  0  0  0  0  0  0  0  0  0  0
  -11.1796   36.6659  -36.7028 H   0  0  0  0  0  0  0  0  0  0  0  0
  -10.4259   34.9789  -38.2940 H   0  0  0  0  0  0  0  0  0  0  0  0
  -11.4872   36.1658  -39.1256 H   0  0  0  0  0  0  0  0  0  0  0  0
  -12.1740   33.3378  -38.4046 H   0  0  0  0  0  0  0  0  0  0  0  0
  -14.3073   35.4841  -41.1296 H   0  0  0  0  0  0  0  0  0  0  0  0
  -13.0265   36.3222  -40.2132 H   0  0  0  0  0  0  0  0  0  0  0  0
  -13.7832   32.3533  -39.5790 H   0  0  0  0  0  0  0  0  0  0  0  0
  -14.7186   33.2758  -40.7860 H   0  0  0  0  0  0  0  0  0  0  0  0
  -15.8461   39.4992  -37.1805 H   0  0  0  0  0  0  0  0  0  0  0  0
  -14.1477   39.2255  -37.3818 H   0  0  0  0  0  0  0  0  0  0  0  0
  1  2  2  0  0  0  0
  1  3  1  0  0  0  0
  1  4  1  0  0  0  0
  3122  1  0  0  0  0
  3123  1  0  0  0  0
  3124  1  0  0  0  0
  4  5  1  0  0  0  0
  4125  1  0  0  0  0
  5  6  1  0  0  0  0
  5  8  1  0  0  0  0
  5126  1  6  0  0  0
  6  7  2  0  0  0  0
  6 10  1  0  0  0  0
  8  9  1  0  0  0  0
  8127  1  0  0  0  0
  8128  1  0  0  0  0
  9 98  1  0  0  0  0
 10 11  1  0  0  0  0
 10129  1  0  0  0  0
 11 12  1  0  0  0  0
 11 14  1  0  0  0  0
 11130  1  1  0  0  0
 12 13  2  0  0  0  0
 12 21  1  0  0  0  0
 14 15  1  0  0  0  0
 14131  1  0  0  0  0
 14132  1  0  0  0  0
 15 16  1  0  0  0  0
 15133  1  0  0  0  0
 15134  1  0  0  0  0
 16 17  1  0  0  0  0
 16135  1  0  0  0  0
 16136  1  0  0  0  0
 17 18  1  0  0  0  0
 17137  1  0  0  0  0
 18 19  1  0  0  0  0
 18 20  1  0  0  0  0
 19138  1  0  0  0  0
 19139  1  0  0  0  0
 20140  1  0  0  0  0
 20141  1  0  0  0  0
 21 22  1  0  0  0  0
 21142  1  0  0  0  0
 22 23  1  0  0  0  0
 22 25  1  0  0  0  0
 22143  1  6  0  0  0
 23 24  2  0  0  0  0
 23 28  1  0  0  0  0
 25 26  1  0  0  0  0
 25 27  1  0  0  0  0
 25144  1  0  0  0  0
 26145  1  0  0  0  0
 26146  1  0  0  0  0
 26147  1  0  0  0  0
 27148  1  0  0  0  0
 27149  1  0  0  0  0
 27150  1  0  0  0  0
 28 29  1  0  0  0  0
 28151  1  0  0  0  0
 29 30  1  0  0  0  0
 29 32  1  0  0  0  0
 29152  1  1  0  0  0
 30 31  2  0  0  0  0
 30 36  1  0  0  0  0
 32 33  1  0  0  0  0
 32153  1  0  0  0  0
 32154  1  0  0  0  0
 33 34  1  0  0  0  0
 33 35  2  0  0  0  0
 36 37  1  0  0  0  0
 36155  1  0  0  0  0
 37 38  1  0  0  0  0
 37 40  1  0  0  0  0
 37156  1  1  0  0  0
 38 39  2  0  0  0  0
 38 44  1  0  0  0  0
 40 41  1  0  0  0  0
 40157  1  0  0  0  0
 40158  1  0  0  0  0
 41 42  1  0  0  0  0
 41 43  1  0  0  0  0
 41159  1  0  0  0  0
 42160  1  0  0  0  0
 42161  1  0  0  0  0
 42162  1  0  0  0  0
 43163  1  0  0  0  0
 43164  1  0  0  0  0
 43165  1  0  0  0  0
 44 45  1  0  0  0  0
 44166  1  0  0  0  0
 45 46  1  0  0  0  0
 45 48  1  0  0  0  0
 45167  1  1  0  0  0
 46 47  2  0  0  0  0
 46 53  1  0  0  0  0
 48 49  1  0  0  0  0
 48168  1  0  0  0  0
 48169  1  0  0  0  0
 49 50  1  0  0  0  0
 49170  1  0  0  0  0
 49171  1  0  0  0  0
 50 51  2  0  0  0  0
 50 52  1  0  0  0  0
 52172  1  0  0  0  0
 52173  1  0  0  0  0
 53 54  1  0  0  0  0
 53174  1  0  0  0  0
 54 55  1  0  0  0  0
 54175  1  0  0  0  0
 54176  1  0  0  0  0
 55 56  2  0  0  0  0
 55 57  1  0  0  0  0
 57 58  1  0  0  0  0
 57177  1  0  0  0  0
 58 59  1  0  0  0  0
 58 61  1  0  0  0  0
 58178  1  1  0  0  0
 59 60  2  0  0  0  0
 59 71  1  0  0  0  0
 61 62  1  0  0  0  0
 61179  1  0  0  0  0
 61180  1  0  0  0  0
 62 63  2  0  0  0  0
 62 64  1  0  0  0  0
 63 65  1  0  0  0  0
 63181  1  0  0  0  0
 64 66  2  0  0  0  0
 64 67  1  0  0  0  0
 65 66  1  0  0  0  0
 65182  1  0  0  0  0
 66 68  1  0  0  0  0
 67 69  2  0  0  0  0
 67183  1  0  0  0  0
 68 70  2  0  0  0  0
 68184  1  0  0  0  0
 69 70  1  0  0  0  0
 69185  1  0  0  0  0
 70186  1  0  0  0  0
 71 72  1  0  0  0  0
 71187  1  0  0  0  0
 72 73  1  0  0  0  0
 72 75  1  0  0  0  0
 72188  1  1  0  0  0
 73 74  2  0  0  0  0
 73 82  1  0  0  0  0
 75 76  1  0  0  0  0
 75189  1  0  0  0  0
 75190  1  0  0  0  0
 76 77  1  0  0  0  0
 76191  1  0  0  0  0
 76192  1  0  0  0  0
 77 78  1  0  0  0  0
 77193  1  0  0  0  0
 77194  1  0  0  0  0
 78 79  1  0  0  0  0
 78195  1  0  0  0  0
 79 80  1  0  0  0  0
 79 81  1  0  0  0  0
 80196  1  0  0  0  0
 80197  1  0  0  0  0
 81198  1  0  0  0  0
 81199  1  0  0  0  0
 82 83  1  0  0  0  0
 82200  1  0  0  0  0
 83 84  1  0  0  0  0
 83 86  1  0  0  0  0
 83201  1  6  0  0  0
 84 85  2  0  0  0  0
 84 93  1  0  0  0  0
 86 87  1  0  0  0  0
 86202  1  0  0  0  0
 86203  1  0  0  0  0
 87 88  1  0  0  0  0
 87204  1  0  0  0  0
 87205  1  0  0  0  0
 88 89  1  0  0  0  0
 88206  1  0  0  0  0
 88207  1  0  0  0  0
 89 90  1  0  0  0  0
 89208  1  0  0  0  0
 90 91  1  0  0  0  0
 90 92  1  0  0  0  0
 91209  1  0  0  0  0
 91210  1  0  0  0  0
 92211  1  0  0  0  0
 92212  1  0  0  0  0
 93 94  1  0  0  0  0
 93213  1  0  0  0  0
 94 95  1  0  0  0  0
 94 97  1  0  0  0  0
 94214  1  1  0  0  0
 95 96  2  0  0  0  0
 95 99  1  0  0  0  0
 97 98  1  0  0  0  0
 97215  1  0  0  0  0
 97216  1  0  0  0  0
 99100  1  0  0  0  0
 99217  1  0  0  0  0
100101  1  0  0  0  0
100103  1  0  0  0  0
100218  1  6  0  0  0
101102  2  0  0  0  0
101110  1  0  0  0  0
103104  1  0  0  0  0
103219  1  0  0  0  0
103220  1  0  0  0  0
104105  1  0  0  0  0
104221  1  0  0  0  0
104222  1  0  0  0  0
105106  1  0  0  0  0
105223  1  0  0  0  0
105224  1  0  0  0  0
106107  1  0  0  0  0
106225  1  0  0  0  0
107108  1  0  0  0  0
107109  1  0  0  0  0
108226  1  0  0  0  0
108227  1  0  0  0  0
109228  1  0  0  0  0
109229  1  0  0  0  0
110111  1  0  0  0  0
110230  1  0  0  0  0
111112  1  0  0  0  0
111114  1  0  0  0  0
111231  1  1  0  0  0
112113  2  0  0  0  0
112121  1  0  0  0  0
114115  1  0  0  0  0
114232  1  0  0  0  0
114233  1  0  0  0  0
115116  1  0  0  0  0
115234  1  0  0  0  0
115235  1  0  0  0  0
116117  1  0  0  0  0
116236  1  0  0  0  0
116237  1  0  0  0  0
117118  1  0  0  0  0
117238  1  0  0  0  0
118119  1  0  0  0  0
118120  1  0  0  0  0
119239  1  0  0  0  0
119240  1  0  0  0  0
120241  1  0  0  0  0
120242  1  0  0  0  0
121243  1  0  0  0  0
121244  1  0  0  0  0
M  CHG  1  34  -1
M  END
