5hfj_ligand
 OpenBabel08222323333D

 50 52  0  0  1  0  0  0  0  0999 V2000
  -26.6490    7.0040  -14.4630 N   0  3  0  0  0  0  0  0  0  0  0  0
  -25.2910    7.3710  -14.0760 C   0  0  2  0  0  0  0  0  0  0  0  0
  -25.0530    7.2830  -12.5720 C   0  0  0  0  0  0  0  0  0  0  0  0
  -23.9190    7.4120  -12.1120 O   0  5  0  0  0  0  0  0  0  0  0  0
  -25.9780    7.0870  -11.7850 O   0  0  0  0  0  0  0  0  0  0  0  0
  -24.9400    8.7700  -14.5630 C   0  0  0  0  0  0  0  0  0  0  0  0
  -25.4150    9.1130  -15.9680 C   0  0  0  0  0  0  0  0  0  0  0  0
  -24.9390   10.8010  -16.4110 S   0  0  2  0  0  3  0  0  0  0  0  0
  -26.5660   11.5650  -16.6450 C   0  0  0  0  0  0  0  0  0  0  0  0
  -24.3350   10.6680  -18.1130 C   0  0  0  0  0  0  0  0  0  0  0  0
  -22.8620   10.2800  -18.2210 C   0  0  1  0  0  0  0  0  0  0  0  0
  -22.5280   10.0850  -19.5780 O   0  0  0  0  0  0  0  0  0  0  0  0
  -21.8940   11.3320  -17.6990 C   0  0  1  0  0  0  0  0  0  0  0  0
  -21.1200   10.7580  -16.6760 O   0  0  0  0  0  0  0  0  0  0  0  0
  -20.9700   11.6610  -18.8550 C   0  0  1  0  0  0  0  0  0  0  0  0
  -19.6280   11.6840  -18.4290 O   0  0  0  0  0  0  0  0  0  0  0  0
  -21.2000   10.5020  -19.8040 C   0  0  2  0  0  0  0  0  0  0  0  0
  -21.0140   10.8470  -21.2220 N   0  0  0  0  0  0  0  0  0  0  0  0
  -21.0500   12.0760  -21.8270 C   0  0  0  0  0  0  0  0  0  0  0  0
  -20.8250   11.8980  -23.1520 N   0  0  0  0  0  0  0  0  0  0  0  0
  -20.6530   10.5780  -23.3920 C   0  0  0  0  0  0  0  0  0  0  0  0
  -20.4020    9.8450  -24.5440 C   0  0  0  0  0  0  0  0  0  0  0  0
  -20.2780   10.4510  -25.7210 N   0  0  0  0  0  0  0  0  0  0  0  0
  -20.2670    8.4740  -24.4560 N   0  0  0  0  0  0  0  0  0  0  0  0
  -20.3890    7.8310  -23.2420 C   0  0  0  0  0  0  0  0  0  0  0  0
  -20.6410    8.5650  -22.1060 N   0  0  0  0  0  0  0  0  0  0  0  0
  -20.7670    9.9110  -22.1830 C   0  0  0  0  0  0  0  0  0  0  0  0
  -26.7457    7.0810  -15.4634 H   0  0  0  0  0  0  0  0  0  0  0  0
  -27.3054    7.6229  -14.0134 H   0  0  0  0  0  0  0  0  0  0  0  0
  -26.8341    6.0545  -14.1797 H   0  0  0  0  0  0  0  0  0  0  0  0
  -24.6083    6.6596  -14.5637 H   0  0  0  0  0  0  0  0  0  0  0  0
  -23.8449    8.8717  -14.5412 H   0  0  0  0  0  0  0  0  0  0  0  0
  -25.3894    9.4938  -13.8672 H   0  0  0  0  0  0  0  0  0  0  0  0
  -26.5106    9.0241  -16.0103 H   0  0  0  0  0  0  0  0  0  0  0  0
  -24.9622    8.4109  -16.6835 H   0  0  0  0  0  0  0  0  0  0  0  0
  -26.4383   12.6210  -16.9252 H   0  0  0  0  0  0  0  0  0  0  0  0
  -27.1393   11.5010  -15.7084 H   0  0  0  0  0  0  0  0  0  0  0  0
  -27.1078   11.0368  -17.4434 H   0  0  0  0  0  0  0  0  0  0  0  0
  -24.4732   11.6415  -18.6061 H   0  0  0  0  0  0  0  0  0  0  0  0
  -24.9326    9.9051  -18.6335 H   0  0  0  0  0  0  0  0  0  0  0  0
  -22.7099    9.3464  -17.6595 H   0  0  0  0  0  0  0  0  0  0  0  0
  -22.4257   12.2252  -17.3392 H   0  0  0  0  0  0  0  0  0  0  0  0
  -20.6376   10.0169  -17.0233 H   0  0  0  0  0  0  0  0  0  0  0  0
  -21.2331   12.6226  -19.3199 H   0  0  0  0  0  0  0  0  0  0  0  0
  -19.3930   10.8322  -18.0804 H   0  0  0  0  0  0  0  0  0  0  0  0
  -20.5041    9.6878  -19.5535 H   0  0  0  0  0  0  0  0  0  0  0  0
  -21.2281   13.0287  -21.3305 H   0  0  0  0  0  0  0  0  0  0  0  0
  -20.0918    9.8964  -26.5687 H   0  0  0  0  0  0  0  0  0  0  0  0
  -20.3681   11.4751  -25.7850 H   0  0  0  0  0  0  0  0  0  0  0  0
  -20.2869    6.7534  -23.1832 H   0  0  0  0  0  0  0  0  0  0  0  0
  1  2  1  0  0  0  0
  1 28  1  0  0  0  0
  1 29  1  0  0  0  0
  1 30  1  0  0  0  0
  2  3  1  0  0  0  0
  2  6  1  0  0  0  0
  2 31  1  6  0  0  0
  3  4  1  0  0  0  0
  3  5  2  0  0  0  0
  6  7  1  0  0  0  0
  6 32  1  0  0  0  0
  6 33  1  0  0  0  0
  7 34  1  0  0  0  0
  7 35  1  0  0  0  0
  8  7  1  6  0  0  0
  8  9  1  0  0  0  0
  8 10  1  0  0  0  0
  9 36  1  0  0  0  0
  9 37  1  0  0  0  0
  9 38  1  0  0  0  0
 10 11  1  0  0  0  0
 10 39  1  0  0  0  0
 10 40  1  0  0  0  0
 11 12  1  0  0  0  0
 11 13  1  0  0  0  0
 11 41  1  1  0  0  0
 12 17  1  0  0  0  0
 13 14  1  0  0  0  0
 13 15  1  0  0  0  0
 13 42  1  1  0  0  0
 14 43  1  0  0  0  0
 15 16  1  0  0  0  0
 15 17  1  0  0  0  0
 15 44  1  6  0  0  0
 16 45  1  0  0  0  0
 17 18  1  0  0  0  0
 17 46  1  1  0  0  0
 18 19  1  0  0  0  0
 18 27  1  0  0  0  0
 19 20  2  0  0  0  0
 19 47  1  0  0  0  0
 20 21  1  0  0  0  0
 21 22  2  0  0  0  0
 21 27  1  0  0  0  0
 22 23  1  0  0  0  0
 22 24  1  0  0  0  0
 23 48  1  0  0  0  0
 23 49  1  0  0  0  0
 24 25  2  0  0  0  0
 25 26  1  0  0  0  0
 25 50  1  0  0  0  0
 26 27  2  0  0  0  0
M  CHG  2   1   1   4  -1
M  END
