5hip_ligand
 OpenBabel08222323333D

 23 24  0  0  0  0  0  0  0  0999 V2000
  -17.7570    2.4830   -9.2070 C   0  0  0  0  0  0  0  0  0  0  0  0
  -18.7610    1.6940   -6.7160 C   0  0  0  0  0  0  0  0  0  0  0  0
  -19.0180    1.9100   -9.0510 C   0  0  0  0  0  0  0  0  0  0  0  0
  -16.1700    4.5840  -11.8190 C   0  0  0  0  0  0  0  0  0  0  0  0
  -16.6750    4.1370  -10.6000 C   0  0  0  0  0  0  0  0  0  0  0  0
  -17.2730    2.8920  -10.4720 C   0  0  0  0  0  0  0  0  0  0  0  0
  -17.3650    2.1040  -11.6400 C   0  0  0  0  0  0  0  0  0  0  0  0
  -16.8750    2.5670  -12.8540 C   0  0  0  0  0  0  0  0  0  0  0  0
  -16.2610    3.8020  -12.9640 C   0  0  0  0  0  0  0  0  0  0  0  0
  -17.9400    0.7040  -11.5820 C   0  0  0  0  0  0  0  0  0  0  0  0
  -18.8140    0.2510  -12.3860 O   0  5  0  0  0  0  0  0  0  0  0  0
  -17.4530   -0.0430  -10.6480 O   0  0  0  0  0  0  0  0  0  0  0  0
  -17.0190    2.6840   -8.0250 C   0  0  0  0  0  0  0  0  0  0  0  0
  -17.5100    2.2800   -6.7940 C   0  0  0  0  0  0  0  0  0  0  0  0
  -19.4930    1.5300   -7.8450 N   0  0  0  0  0  0  0  0  0  0  0  0
  -19.1528    1.3685   -5.7591 H   0  0  0  0  0  0  0  0  0  0  0  0
  -19.6388    1.7643   -9.9276 H   0  0  0  0  0  0  0  0  0  0  0  0
  -15.6981    5.5583  -11.8752 H   0  0  0  0  0  0  0  0  0  0  0  0
  -16.5987    4.7784   -9.7295 H   0  0  0  0  0  0  0  0  0  0  0  0
  -16.9760    1.9459  -13.7367 H   0  0  0  0  0  0  0  0  0  0  0  0
  -15.8642    4.1479  -13.9116 H   0  0  0  0  0  0  0  0  0  0  0  0
  -16.0485    3.1638   -8.0790 H   0  0  0  0  0  0  0  0  0  0  0  0
  -16.9176    2.4222   -5.8974 H   0  0  0  0  0  0  0  0  0  0  0  0
  1  3  2  0  0  0  0
  1 13  1  0  0  0  0
  2 14  1  0  0  0  0
  2 16  1  0  0  0  0
  3 15  1  0  0  0  0
  3 17  1  0  0  0  0
  4  9  1  0  0  0  0
  4 18  1  0  0  0  0
  5  4  2  0  0  0  0
  5  6  1  0  0  0  0
  5 19  1  0  0  0  0
  6  1  1  0  0  0  0
  6  7  2  0  0  0  0
  7  8  1  0  0  0  0
  7 10  1  0  0  0  0
  8  9  2  0  0  0  0
  8 20  1  0  0  0  0
  9 21  1  0  0  0  0
 10 11  1  0  0  0  0
 10 12  2  0  0  0  0
 13 14  2  0  0  0  0
 13 22  1  0  0  0  0
 14 23  1  0  0  0  0
 15  2  2  0  0  0  0
M  CHG  1  11  -1
M  END
