5hkh_ligand
 OpenBabel08222323333D

144145  0  0  1  0  0  0  0  0999 V2000
   29.3720   -9.2840  -10.5420 N   0  3  0  0  0  0  0  0  0  0  0  0
   28.4590  -10.0830   -9.7320 C   0  0  2  0  0  0  0  0  0  0  0  0
   27.7580   -9.2090   -8.6910 C   0  0  0  0  0  0  0  0  0  0  0  0
   26.5610   -9.3980   -8.4110 O   0  0  0  0  0  0  0  0  0  0  0  0
   29.2170  -11.2340   -9.0460 C   0  0  0  0  0  0  0  0  0  0  0  0
   28.2800  -12.3140   -8.4680 C   0  0  0  0  0  0  0  0  0  0  0  0
   27.2510  -11.9680   -7.8280 O   0  5  0  0  0  0  0  0  0  0  0  0
   28.5820  -13.5210   -8.6490 O   0  0  0  0  0  0  0  0  0  0  0  0
   28.5050   -8.2500   -8.1350 N   0  0  0  0  0  0  0  0  0  0  0  0
   28.0500   -7.4370   -6.9890 C   0  0  2  0  0  0  0  0  0  0  0  0
   27.5890   -8.2180   -5.7380 C   0  0  0  0  0  0  0  0  0  0  0  0
   26.5000   -7.9840   -5.1820 O   0  0  0  0  0  0  0  0  0  0  0  0
   26.9990   -6.3980   -7.3870 C   0  0  0  0  0  0  0  0  0  0  0  0
   26.8490   -5.2990   -6.3370 C   0  0  0  0  0  0  0  0  0  0  0  0
   27.6920   -5.1560   -5.4400 O   0  0  0  0  0  0  0  0  0  0  0  0
   25.7790   -4.5170   -6.4480 N   0  0  0  0  0  0  0  0  0  0  0  0
   28.4490   -9.1180   -5.2890 N   0  0  0  0  0  0  0  0  0  0  0  0
   28.1640   -9.9490   -4.1420 C   0  0  2  0  0  0  0  0  0  0  0  0
   28.3510   -9.2210   -2.8030 C   0  0  0  0  0  0  0  0  0  0  0  0
   28.1560   -9.8200   -1.7410 O   0  0  0  0  0  0  0  0  0  0  0  0
   29.0250  -11.2200   -4.2070 C   0  0  0  0  0  0  0  0  0  0  0  0
   30.5180  -11.0190   -3.9690 C   0  0  0  0  0  0  0  0  0  0  0  0
   31.2720  -10.3160   -5.1110 C   0  0  0  0  0  0  0  0  0  0  0  0
   30.6370   -9.6350   -5.9450 O   0  5  0  0  0  0  0  0  0  0  0  0
   32.5220  -10.4410   -5.1660 O   0  0  0  0  0  0  0  0  0  0  0  0
   28.7240   -7.9400   -2.8460 N   0  0  0  0  0  0  0  0  0  0  0  0
   28.8600   -7.1380   -1.6230 C   0  0  2  0  0  0  0  0  0  0  0  0
   27.7360   -6.1210   -1.4750 C   0  0  0  0  0  0  0  0  0  0  0  0
   27.7630   -5.2860   -0.5750 O   0  0  0  0  0  0  0  0  0  0  0  0
   30.2200   -6.4270   -1.5290 C   0  0  0  0  0  0  0  0  0  0  0  0
   31.3760   -7.3600   -1.5120 C   0  0  0  0  0  0  0  0  0  0  0  0
   32.1250   -7.7510   -2.5830 C   0  0  0  0  0  0  0  0  0  0  0  0
   31.9250   -8.0320   -0.3710 C   0  0  0  0  0  0  0  0  0  0  0  0
   33.1020   -8.6290   -2.1800 N   0  0  0  0  0  0  0  0  0  0  0  0
   33.0010   -8.8170   -0.8250 C   0  0  0  0  0  0  0  0  0  0  0  0
   31.6140   -8.0430    0.9940 C   0  0  0  0  0  0  0  0  0  0  0  0
   33.7700   -9.6080    0.0370 C   0  0  0  0  0  0  0  0  0  0  0  0
   32.3780   -8.8360    1.8490 C   0  0  0  0  0  0  0  0  0  0  0  0
   33.4400   -9.6050    1.3640 C   0  0  0  0  0  0  0  0  0  0  0  0
   26.7520   -6.1800   -2.3620 N   0  0  0  0  0  0  0  0  0  0  0  0
   25.5540   -5.3850   -2.1750 C   0  0  0  0  0  0  0  0  0  0  0  0
   25.6770   -3.8740   -2.3220 C   0  0  0  0  0  0  0  0  0  0  0  0
   24.8820   -3.1250   -1.7420 O   0  0  0  0  0  0  0  0  0  0  0  0
   26.6530   -3.4200   -3.1030 N   0  0  0  0  0  0  0  0  0  0  0  0
   26.8100   -2.0000   -3.3890 C   0  0  2  0  0  0  0  0  0  0  0  0
   25.6400   -1.4880   -4.2170 C   0  0  0  0  0  0  0  0  0  0  0  0
   25.2360   -2.1420   -5.1590 O   0  0  0  0  0  0  0  0  0  0  0  0
   28.1340   -1.7440   -4.1390 C   0  0  2  0  0  0  0  0  0  0  0  0
   29.3060   -1.9730   -3.1850 C   0  0  0  0  0  0  0  0  0  0  0  0
   28.1700   -0.3250   -4.7500 C   0  0  0  0  0  0  0  0  0  0  0  0
   30.6740   -1.7990   -3.8130 C   0  0  0  0  0  0  0  0  0  0  0  0
   25.1040   -0.3200   -3.8690 N   0  0  0  0  0  0  0  0  0  0  0  0
   23.9880    0.2820   -4.6020 C   0  0  2  0  0  0  0  0  0  0  0  0
   24.4010    1.5960   -5.2700 C   0  0  0  0  0  0  0  0  0  0  0  0
   25.1110    2.4200   -4.6630 O   0  0  0  0  0  0  0  0  0  0  0  0
   22.8100    0.5680   -3.6580 C   0  0  0  0  0  0  0  0  0  0  0  0
   22.1000   -0.6570   -3.0770 C   0  0  0  0  0  0  0  0  0  0  0  0
   21.0010   -0.2810   -2.0720 C   0  0  0  0  0  0  0  0  0  0  0  0
   20.4610   -1.2020   -1.4140 O   0  5  0  0  0  0  0  0  0  0  0  0
   20.6780    0.9310   -1.9350 O   0  0  0  0  0  0  0  0  0  0  0  0
   23.9420    1.8080   -6.5040 N   0  0  0  0  0  0  0  0  0  0  0  0
   24.2010    3.0640   -7.2080 C   0  0  2  0  0  0  0  0  0  0  0  0
   23.0810    4.0340   -6.8720 C   0  0  0  0  0  0  0  0  0  0  0  0
   21.9380    3.6160   -6.7410 O   0  0  0  0  0  0  0  0  0  0  0  0
   24.2790    2.8090   -8.7140 C   0  0  0  0  0  0  0  0  0  0  0  0
   24.6660    3.8720   -9.7460 C   0  0  0  0  0  0  0  0  0  0  0  0
   23.4480    4.6470  -10.2360 C   0  0  0  0  0  0  0  0  0  0  0  0
   25.7380    4.8130   -9.2080 C   0  0  0  0  0  0  0  0  0  0  0  0
   23.4040    5.3100   -6.6880 N   0  0  0  0  0  0  0  0  0  0  0  0
   22.3700    6.3350   -6.4880 C   0  0  2  0  0  0  0  0  0  0  0  0
   22.6000    7.5840   -7.3380 C   0  0  0  0  0  0  0  0  0  0  0  0
   21.6810    8.0610   -8.0030 O   0  5  0  0  0  0  0  0  0  0  0  0
   22.1650    6.7220   -4.9890 C   0  0  0  0  0  0  0  0  0  0  0  0
   23.4040    6.4490   -4.1570 C   0  0  0  0  0  0  0  0  0  0  0  0
   21.7260    8.1840   -4.8480 C   0  0  0  0  0  0  0  0  0  0  0  0
   23.7060    8.1230   -7.3640 O   0  0  0  0  0  0  0  0  0  0  0  0
   29.8241   -9.8758  -11.2213 H   0  0  0  0  0  0  0  0  0  0  0  0
   30.0682   -8.8629   -9.9470 H   0  0  0  0  0  0  0  0  0  0  0  0
   28.8546   -8.5613  -11.0174 H   0  0  0  0  0  0  0  0  0  0  0  0
   27.6945  -10.5155  -10.3942 H   0  0  0  0  0  0  0  0  0  0  0  0
   29.8191  -10.8170   -8.2253 H   0  0  0  0  0  0  0  0  0  0  0  0
   29.8812  -11.7057   -9.7851 H   0  0  0  0  0  0  0  0  0  0  0  0
   29.4143   -8.0749   -8.5126 H   0  0  0  0  0  0  0  0  0  0  0  0
   28.9371   -6.8698   -6.6706 H   0  0  0  0  0  0  0  0  0  0  0  0
   26.0301   -6.9037   -7.5116 H   0  0  0  0  0  0  0  0  0  0  0  0
   27.2982   -5.9386   -8.3406 H   0  0  0  0  0  0  0  0  0  0  0  0
   25.6277   -3.7801   -5.7891 H   0  0  0  0  0  0  0  0  0  0  0  0
   25.1257   -4.6659   -7.1903 H   0  0  0  0  0  0  0  0  0  0  0  0
   29.3249   -9.2265   -5.7591 H   0  0  0  0  0  0  0  0  0  0  0  0
   27.1079  -10.2503   -4.2043 H   0  0  0  0  0  0  0  0  0  0  0  0
   28.8985  -11.6635   -5.2056 H   0  0  0  0  0  0  0  0  0  0  0  0
   28.6524  -11.9202   -3.4449 H   0  0  0  0  0  0  0  0  0  0  0  0
   30.9750  -12.0079   -3.8170 H   0  0  0  0  0  0  0  0  0  0  0  0
   30.6396  -10.4149   -3.0578 H   0  0  0  0  0  0  0  0  0  0  0  0
   28.9153   -7.5165   -3.7315 H   0  0  0  0  0  0  0  0  0  0  0  0
   28.7920   -7.8335   -0.7735 H   0  0  0  0  0  0  0  0  0  0  0  0
   30.2389   -5.8323   -0.6038 H   0  0  0  0  0  0  0  0  0  0  0  0
   30.3245   -5.7589   -2.3966 H   0  0  0  0  0  0  0  0  0  0  0  0
   31.9710   -7.4161   -3.6077 H   0  0  0  0  0  0  0  0  0  0  0  0
   33.7976   -9.0740   -2.7957 H   0  0  0  0  0  0  0  0  0  0  0  0
   30.7948   -7.4463    1.3787 H   0  0  0  0  0  0  0  0  0  0  0  0
   34.5975  -10.2017   -0.3343 H   0  0  0  0  0  0  0  0  0  0  0  0
   32.1447   -8.8567    2.9074 H   0  0  0  0  0  0  0  0  0  0  0  0
   34.0142  -10.2119    2.0547 H   0  0  0  0  0  0  0  0  0  0  0  0
   26.8364   -6.7743   -3.1618 H   0  0  0  0  0  0  0  0  0  0  0  0
   25.1807   -5.5870   -1.1602 H   0  0  0  0  0  0  0  0  0  0  0  0
   24.8138   -5.7277   -2.9130 H   0  0  0  0  0  0  0  0  0  0  0  0
   27.2968   -4.0711   -3.5050 H   0  0  0  0  0  0  0  0  0  0  0  0
   26.8332   -1.4517   -2.4357 H   0  0  0  0  0  0  0  0  0  0  0  0
   28.2115   -2.4690   -4.9626 H   0  0  0  0  0  0  0  0  0  0  0  0
   29.2356   -2.9992   -2.7951 H   0  0  0  0  0  0  0  0  0  0  0  0
   29.2166   -1.2580   -2.3539 H   0  0  0  0  0  0  0  0  0  0  0  0
   27.3143   -0.1964   -5.4292 H   0  0  0  0  0  0  0  0  0  0  0  0
   29.1067   -0.1909   -5.3109 H   0  0  0  0  0  0  0  0  0  0  0  0
   28.1145    0.4224   -3.9449 H   0  0  0  0  0  0  0  0  0  0  0  0
   31.4509   -1.9823   -3.0561 H   0  0  0  0  0  0  0  0  0  0  0  0
   30.7727   -0.7736   -4.1987 H   0  0  0  0  0  0  0  0  0  0  0  0
   30.7916   -2.5148   -4.6399 H   0  0  0  0  0  0  0  0  0  0  0  0
   25.4773    0.1643   -3.0777 H   0  0  0  0  0  0  0  0  0  0  0  0
   23.6612   -0.4247   -5.3790 H   0  0  0  0  0  0  0  0  0  0  0  0
   22.0657    1.1539   -4.2172 H   0  0  0  0  0  0  0  0  0  0  0  0
   23.1908    1.1660   -2.8170 H   0  0  0  0  0  0  0  0  0  0  0  0
   22.8439   -1.2863   -2.5665 H   0  0  0  0  0  0  0  0  0  0  0  0
   21.6440   -1.2242   -3.9019 H   0  0  0  0  0  0  0  0  0  0  0  0
   23.4096    1.0934   -6.9577 H   0  0  0  0  0  0  0  0  0  0  0  0
   25.1588    3.4848   -6.8681 H   0  0  0  0  0  0  0  0  0  0  0  0
   23.2789    2.4583   -9.0087 H   0  0  0  0  0  0  0  0  0  0  0  0
   25.0057    1.9930   -8.8405 H   0  0  0  0  0  0  0  0  0  0  0  0
   25.0935    3.3472  -10.6131 H   0  0  0  0  0  0  0  0  0  0  0  0
   23.7644    5.3991  -10.9737 H   0  0  0  0  0  0  0  0  0  0  0  0
   22.9658    5.1490   -9.3843 H   0  0  0  0  0  0  0  0  0  0  0  0
   22.7350    3.9521  -10.7037 H   0  0  0  0  0  0  0  0  0  0  0  0
   26.6018    4.2257   -8.8630 H   0  0  0  0  0  0  0  0  0  0  0  0
   25.3290    5.3922   -8.3670 H   0  0  0  0  0  0  0  0  0  0  0  0
   26.0568    5.5000  -10.0057 H   0  0  0  0  0  0  0  0  0  0  0  0
   24.3676    5.5773   -6.6856 H   0  0  0  0  0  0  0  0  0  0  0  0
   21.4248    5.8884   -6.8303 H   0  0  0  0  0  0  0  0  0  0  0  0
   21.3553    6.0910   -4.5937 H   0  0  0  0  0  0  0  0  0  0  0  0
   23.2144    6.7356   -3.1121 H   0  0  0  0  0  0  0  0  0  0  0  0
   24.2469    7.0358   -4.5510 H   0  0  0  0  0  0  0  0  0  0  0  0
   23.6490    5.3777   -4.2047 H   0  0  0  0  0  0  0  0  0  0  0  0
   20.8278    8.3577   -5.4589 H   0  0  0  0  0  0  0  0  0  0  0  0
   22.5359    8.8447   -5.1908 H   0  0  0  0  0  0  0  0  0  0  0  0
   21.4992    8.3987   -3.7933 H   0  0  0  0  0  0  0  0  0  0  0  0
  1  2  1  0  0  0  0
  1 77  1  0  0  0  0
  1 78  1  0  0  0  0
  1 79  1  0  0  0  0
  2  3  1  0  0  0  0
  2  5  1  0  0  0  0
  2 80  1  6  0  0  0
  3  4  2  0  0  0  0
  3  9  1  0  0  0  0
  5  6  1  0  0  0  0
  5 81  1  0  0  0  0
  5 82  1  0  0  0  0
  6  7  1  0  0  0  0
  6  8  2  0  0  0  0
  9 10  1  0  0  0  0
  9 83  1  0  0  0  0
 10 11  1  0  0  0  0
 10 13  1  0  0  0  0
 10 84  1  1  0  0  0
 11 12  2  0  0  0  0
 11 17  1  0  0  0  0
 13 14  1  0  0  0  0
 13 85  1  0  0  0  0
 13 86  1  0  0  0  0
 14 15  2  0  0  0  0
 14 16  1  0  0  0  0
 16 87  1  0  0  0  0
 16 88  1  0  0  0  0
 17 18  1  0  0  0  0
 17 89  1  0  0  0  0
 18 19  1  0  0  0  0
 18 21  1  0  0  0  0
 18 90  1  6  0  0  0
 19 20  2  0  0  0  0
 19 26  1  0  0  0  0
 21 22  1  0  0  0  0
 21 91  1  0  0  0  0
 21 92  1  0  0  0  0
 22 23  1  0  0  0  0
 22 93  1  0  0  0  0
 22 94  1  0  0  0  0
 23 24  1  0  0  0  0
 23 25  2  0  0  0  0
 26 27  1  0  0  0  0
 26 95  1  0  0  0  0
 27 28  1  0  0  0  0
 27 30  1  0  0  0  0
 27 96  1  1  0  0  0
 28 29  2  0  0  0  0
 28 40  1  0  0  0  0
 30 31  1  0  0  0  0
 30 97  1  0  0  0  0
 30 98  1  0  0  0  0
 31 32  2  0  0  0  0
 31 33  1  0  0  0  0
 32 34  1  0  0  0  0
 32 99  1  0  0  0  0
 33 35  2  0  0  0  0
 33 36  1  0  0  0  0
 34 35  1  0  0  0  0
 34100  1  0  0  0  0
 35 37  1  0  0  0  0
 36 38  2  0  0  0  0
 36101  1  0  0  0  0
 37 39  2  0  0  0  0
 37102  1  0  0  0  0
 38 39  1  0  0  0  0
 38103  1  0  0  0  0
 39104  1  0  0  0  0
 40 41  1  0  0  0  0
 40105  1  0  0  0  0
 41 42  1  0  0  0  0
 41106  1  0  0  0  0
 41107  1  0  0  0  0
 42 43  2  0  0  0  0
 42 44  1  0  0  0  0
 44 45  1  0  0  0  0
 44108  1  0  0  0  0
 45 46  1  0  0  0  0
 45 48  1  0  0  0  0
 45109  1  1  0  0  0
 46 47  2  0  0  0  0
 46 52  1  0  0  0  0
 48 49  1  0  0  0  0
 48 50  1  0  0  0  0
 48110  1  6  0  0  0
 49 51  1  0  0  0  0
 49111  1  0  0  0  0
 49112  1  0  0  0  0
 50113  1  0  0  0  0
 50114  1  0  0  0  0
 50115  1  0  0  0  0
 51116  1  0  0  0  0
 51117  1  0  0  0  0
 51118  1  0  0  0  0
 52 53  1  0  0  0  0
 52119  1  0  0  0  0
 53 54  1  0  0  0  0
 53 56  1  0  0  0  0
 53120  1  6  0  0  0
 54 55  2  0  0  0  0
 54 61  1  0  0  0  0
 56 57  1  0  0  0  0
 56121  1  0  0  0  0
 56122  1  0  0  0  0
 57 58  1  0  0  0  0
 57123  1  0  0  0  0
 57124  1  0  0  0  0
 58 59  1  0  0  0  0
 58 60  2  0  0  0  0
 61 62  1  0  0  0  0
 61125  1  0  0  0  0
 62 63  1  0  0  0  0
 62 65  1  0  0  0  0
 62126  1  1  0  0  0
 63 64  2  0  0  0  0
 63 69  1  0  0  0  0
 65 66  1  0  0  0  0
 65127  1  0  0  0  0
 65128  1  0  0  0  0
 66 67  1  0  0  0  0
 66 68  1  0  0  0  0
 66129  1  0  0  0  0
 67130  1  0  0  0  0
 67131  1  0  0  0  0
 67132  1  0  0  0  0
 68133  1  0  0  0  0
 68134  1  0  0  0  0
 68135  1  0  0  0  0
 69 70  1  0  0  0  0
 69136  1  0  0  0  0
 70 71  1  0  0  0  0
 70 73  1  0  0  0  0
 70137  1  6  0  0  0
 71 72  1  0  0  0  0
 71 76  2  0  0  0  0
 73 74  1  0  0  0  0
 73 75  1  0  0  0  0
 73138  1  0  0  0  0
 74139  1  0  0  0  0
 74140  1  0  0  0  0
 74141  1  0  0  0  0
 75142  1  0  0  0  0
 75143  1  0  0  0  0
 75144  1  0  0  0  0
M  CHG  5   1   1   7  -1  24  -1  59  -1  72  -1
M  END
