5hog_ligand
 OpenBabel08222323333D

210209  0  0  1  0  0  0  0  0999 V2000
   -3.3710   39.7540   -1.4970 N   0  3  0  0  0  0  0  0  0  0  0  0
   -2.2180   40.0640   -2.3320 C   0  0  2  0  0  0  0  0  0  0  0  0
   -2.3950   39.5050   -3.7410 C   0  0  0  0  0  0  0  0  0  0  0  0
   -2.0780   40.1710   -4.7290 O   0  0  0  0  0  0  0  0  0  0  0  0
   -0.9370   39.5100   -1.7010 C   0  0  0  0  0  0  0  0  0  0  0  0
    0.1900   39.7640   -2.5220 O   0  0  0  0  0  0  0  0  0  0  0  0
   -2.9060   38.2740   -3.8240 N   0  0  0  0  0  0  0  0  0  0  0  0
   -3.1020   37.6160   -5.1100 C   0  0  2  0  0  0  0  0  0  0  0  0
   -4.3440   38.1030   -5.8440 C   0  0  0  0  0  0  0  0  0  0  0  0
   -4.4410   37.9100   -7.0610 O   0  0  0  0  0  0  0  0  0  0  0  0
   -3.1890   36.0990   -4.9210 C   0  0  0  0  0  0  0  0  0  0  0  0
   -1.9060   35.3620   -4.5320 C   0  0  0  0  0  0  0  0  0  0  0  0
   -2.1650   33.8660   -4.4410 C   0  0  0  0  0  0  0  0  0  0  0  0
   -0.7840   35.6570   -5.5160 C   0  0  0  0  0  0  0  0  0  0  0  0
   -5.2980   38.7130   -5.1350 N   0  0  0  0  0  0  0  0  0  0  0  0
   -6.5460   39.1250   -5.7710 C   0  0  2  0  0  0  0  0  0  0  0  0
   -6.3270   40.2870   -6.7350 C   0  0  0  0  0  0  0  0  0  0  0  0
   -6.9550   40.3440   -7.7980 O   0  0  0  0  0  0  0  0  0  0  0  0
   -7.5770   39.4830   -4.7020 C   0  0  0  0  0  0  0  0  0  0  0  0
   -8.0190   38.2810   -3.8830 C   0  0  0  0  0  0  0  0  0  0  0  0
   -9.0670   38.6480   -2.8510 C   0  0  0  0  0  0  0  0  0  0  0  0
   -9.4630   37.4860   -2.0610 N   0  0  0  0  0  0  0  0  0  0  0  0
  -10.2980   37.5320   -1.0290 C   0  0  0  0  0  3  0  0  0  0  0  0
  -10.8300   38.6870   -0.6540 N   0  0  0  0  0  0  0  0  0  0  0  0
  -10.6000   36.4210   -0.3690 N   0  0  0  0  0  0  0  0  0  0  0  0
   -5.4440   41.2190   -6.3860 N   0  0  0  0  0  0  0  0  0  0  0  0
   -5.0860   42.3360   -7.2590 C   0  0  2  0  0  0  0  0  0  0  0  0
   -3.6680   42.0990   -7.7680 C   0  0  0  0  0  0  0  0  0  0  0  0
   -2.6900   42.3650   -7.0640 O   0  0  0  0  0  0  0  0  0  0  0  0
   -5.2050   43.6730   -6.5330 C   0  0  0  0  0  0  0  0  0  0  0  0
   -6.6460   44.0630   -6.2610 C   0  0  0  0  0  0  0  0  0  0  0  0
   -7.5750   43.4770   -6.8170 O   0  0  0  0  0  0  0  0  0  0  0  0
   -6.8370   45.0660   -5.4130 N   0  0  0  0  0  0  0  0  0  0  0  0
   -3.5650   41.5990   -8.9980 N   0  0  0  0  0  0  0  0  0  0  0  0
   -2.2850   41.3600   -9.6500 C   0  0  2  0  0  0  0  0  0  0  0  0
   -2.0720   42.2950  -10.8310 C   0  0  0  0  0  0  0  0  0  0  0  0
   -1.1650   42.0690  -11.6390 O   0  0  0  0  0  0  0  0  0  0  0  0
   -2.1410   39.8920  -10.0850 C   0  0  2  0  0  0  0  0  0  0  0  0
   -3.3540   39.4600  -10.9140 C   0  0  0  0  0  0  0  0  0  0  0  0
   -1.9460   38.9870   -8.8740 C   0  0  0  0  0  0  0  0  0  0  0  0
   -3.2230   38.0780  -11.5170 C   0  0  0  0  0  0  0  0  0  0  0  0
   -2.8900   43.3460  -10.9540 N   0  0  0  0  0  0  0  0  0  0  0  0
   -2.7050   44.3080  -12.0370 C   0  0  2  0  0  0  0  0  0  0  0  0
   -1.3380   44.9750  -11.9660 C   0  0  0  0  0  0  0  0  0  0  0  0
   -0.8090   45.4150  -12.9930 O   0  0  0  0  0  0  0  0  0  0  0  0
   -3.8130   45.3610  -12.0080 C   0  0  0  0  0  0  0  0  0  0  0  0
   -5.1660   44.7950  -12.3870 C   0  0  0  0  0  0  0  0  0  0  0  0
   -5.2100   43.7000  -12.9890 O   0  5  0  0  0  0  0  0  0  0  0  0
   -6.1860   45.4490  -12.0880 O   0  0  0  0  0  0  0  0  0  0  0  0
   -0.7560   45.0670  -10.7690 N   0  0  0  0  0  0  0  0  0  0  0  0
    0.6090   45.5660  -10.6560 C   0  0  2  0  0  0  0  0  0  0  0  0
    1.5950   44.6400  -11.3570 C   0  0  0  0  0  0  0  0  0  0  0  0
    2.6180   45.1010  -11.8740 O   0  0  0  0  0  0  0  0  0  0  0  0
    0.9850   45.7400   -9.1840 C   0  0  0  0  0  0  0  0  0  0  0  0
    0.7970   44.4670   -8.3770 C   0  0  0  0  0  0  0  0  0  0  0  0
    0.1760   43.5160   -8.8950 O   0  5  0  0  0  0  0  0  0  0  0  0
    1.2700   44.4190   -7.2230 O   0  0  0  0  0  0  0  0  0  0  0  0
    1.3100   43.3390  -11.3820 N   0  0  0  0  0  0  0  0  0  0  0  0
    2.1540   42.3840  -12.0940 C   0  0  2  0  0  0  0  0  0  0  0  0
    1.7410   42.2600  -13.5560 C   0  0  0  0  0  0  0  0  0  0  0  0
    2.5940   42.1750  -14.4430 O   0  0  0  0  0  0  0  0  0  0  0  0
    2.1170   41.0140  -11.3860 C   0  0  2  0  0  0  0  0  0  0  0  0
    2.6080   41.1340   -9.9440 C   0  0  0  0  0  0  0  0  0  0  0  0
    2.9550   39.9940  -12.1420 C   0  0  0  0  0  0  0  0  0  0  0  0
    2.5780   39.8240   -9.1850 C   0  0  0  0  0  0  0  0  0  0  0  0
    0.4320   42.2500  -13.8230 N   0  0  0  0  0  0  0  0  0  0  0  0
   -0.0520   42.0340  -15.1830 C   0  0  2  0  0  0  0  0  0  0  0  0
    0.3190   43.1900  -16.1060 C   0  0  0  0  0  0  0  0  0  0  0  0
    0.6080   42.9760  -17.2890 O   0  0  0  0  0  0  0  0  0  0  0  0
   -1.5670   41.8220  -15.1730 C   0  0  0  0  0  0  0  0  0  0  0  0
   -2.0990   40.6310  -14.3690 C   0  0  0  0  0  0  0  0  0  0  0  0
   -3.6220   40.5800  -14.4150 C   0  0  0  0  0  0  0  0  0  0  0  0
   -1.4960   39.3220  -14.8610 C   0  0  0  0  0  0  0  0  0  0  0  0
    0.3240   44.4190  -15.5870 N   0  0  0  0  0  0  0  0  0  0  0  0
    0.6170   45.5780  -16.4190 C   0  0  2  0  0  0  0  0  0  0  0  0
    2.1080   45.7700  -16.6640 C   0  0  0  0  0  0  0  0  0  0  0  0
    2.4790   46.5670  -17.5330 O   0  0  0  0  0  0  0  0  0  0  0  0
    0.0310   46.8430  -15.7810 C   0  0  0  0  0  0  0  0  0  0  0  0
   -1.4890   46.8050  -15.6870 C   0  0  0  0  0  0  0  0  0  0  0  0
   -2.1130   45.9650  -16.3690 O   0  5  0  0  0  0  0  0  0  0  0  0
   -2.0590   47.6170  -14.9270 O   0  0  0  0  0  0  0  0  0  0  0  0
    2.9640   45.0580  -15.9260 N   0  0  0  0  0  0  0  0  0  0  0  0
    4.4060   45.1080  -16.1400 C   0  0  2  0  0  0  0  0  0  0  0  0
    4.8540   44.3220  -17.3660 C   0  0  0  0  0  0  0  0  0  0  0  0
    5.9920   44.4980  -17.8130 O   0  0  0  0  0  0  0  0  0  0  0  0
    5.1380   44.5820  -14.9020 C   0  0  0  0  0  0  0  0  0  0  0  0
    5.0420   45.5290  -13.7180 C   0  0  0  0  0  0  0  0  0  0  0  0
    4.2140   46.4630  -13.7670 O   0  5  0  0  0  0  0  0  0  0  0  0
    5.7900   45.3340  -12.7350 O   0  0  0  0  0  0  0  0  0  0  0  0
    3.9980   43.4460  -17.9010 N   0  0  0  0  0  0  0  0  0  0  0  0
    4.3940   42.5970  -19.0240 C   0  0  2  0  0  0  0  0  0  0  0  0
    4.6970   43.4350  -20.2610 C   0  0  0  0  0  0  0  0  0  0  0  0
    5.6060   43.1130  -21.0360 O   0  0  0  0  0  0  0  0  0  0  0  0
    3.3060   41.5440  -19.3050 C   0  0  2  0  0  0  0  0  0  0  0  0
    3.0080   40.7370  -18.0420 C   0  0  0  0  0  0  0  0  0  0  0  0
    3.7350   40.6150  -20.4320 C   0  0  0  0  0  0  0  0  0  0  0  0
    1.9780   39.6530  -18.2430 C   0  0  0  0  0  0  0  0  0  0  0  0
    3.9450   44.5140  -20.4650 N   0  0  0  0  0  0  0  0  0  0  0  0
    4.0670   45.3450  -21.6640 C   0  0  2  0  0  0  0  0  0  0  0  0
    5.5020   45.8060  -21.9180 C   0  0  0  0  0  0  0  0  0  0  0  0
    6.1750   45.3080  -22.8230 O   0  5  0  0  0  0  0  0  0  0  0  0
    3.1480   46.5650  -21.5580 C   0  0  0  0  0  0  0  0  0  0  0  0
    1.6720   46.2310  -21.4110 C   0  0  0  0  0  0  0  0  0  0  0  0
    0.8100   47.4690  -21.2390 C   0  0  0  0  0  0  0  0  0  0  0  0
    1.3710   48.5830  -21.1630 O   0  5  0  0  0  0  0  0  0  0  0  0
   -0.4290   47.3270  -21.1790 O   0  0  0  0  0  0  0  0  0  0  0  0
    6.0160   46.6850  -21.2230 O   0  0  0  0  0  0  0  0  0  0  0  0
   -3.2291   40.1334   -0.5740 H   0  0  0  0  0  0  0  0  0  0  0  0
   -3.4824   38.7541   -1.4357 H   0  0  0  0  0  0  0  0  0  0  0  0
   -4.1992   40.1601   -1.9035 H   0  0  0  0  0  0  0  0  0  0  0  0
   -2.1268   41.1579   -2.4025 H   0  0  0  0  0  0  0  0  0  0  0  0
   -1.0445   38.4237   -1.5654 H   0  0  0  0  0  0  0  0  0  0  0  0
   -0.7831   39.9883   -0.7225 H   0  0  0  0  0  0  0  0  0  0  0  0
    0.9684   39.4107   -2.1076 H   0  0  0  0  0  0  0  0  0  0  0  0
   -3.1599   37.7927   -2.9850 H   0  0  0  0  0  0  0  0  0  0  0  0
   -2.2273   37.8398   -5.7383 H   0  0  0  0  0  0  0  0  0  0  0  0
   -3.5419   35.6682   -5.8696 H   0  0  0  0  0  0  0  0  0  0  0  0
   -3.9315   35.9070   -4.1324 H   0  0  0  0  0  0  0  0  0  0  0  0
   -1.5925   35.7185   -3.5398 H   0  0  0  0  0  0  0  0  0  0  0  0
   -1.2352   33.3493   -4.1609 H   0  0  0  0  0  0  0  0  0  0  0  0
   -2.5117   33.4939   -5.4164 H   0  0  0  0  0  0  0  0  0  0  0  0
   -2.9353   33.6728   -3.6799 H   0  0  0  0  0  0  0  0  0  0  0  0
   -0.6152   36.7429   -5.5648 H   0  0  0  0  0  0  0  0  0  0  0  0
   -1.0628   35.2842   -6.5126 H   0  0  0  0  0  0  0  0  0  0  0  0
    0.1373   35.1574   -5.1821 H   0  0  0  0  0  0  0  0  0  0  0  0
   -5.1562   38.8888   -4.1608 H   0  0  0  0  0  0  0  0  0  0  0  0
   -6.9326   38.2737   -6.3505 H   0  0  0  0  0  0  0  0  0  0  0  0
   -8.4597   39.9153   -5.1959 H   0  0  0  0  0  0  0  0  0  0  0  0
   -7.1353   40.2274   -4.0232 H   0  0  0  0  0  0  0  0  0  0  0  0
   -7.1430   37.8629   -3.3656 H   0  0  0  0  0  0  0  0  0  0  0  0
   -8.4395   37.5245   -4.5619 H   0  0  0  0  0  0  0  0  0  0  0  0
   -9.9521   39.0495   -3.3662 H   0  0  0  0  0  0  0  0  0  0  0  0
   -8.6548   39.4148   -2.1786 H   0  0  0  0  0  0  0  0  0  0  0  0
   -9.0691   36.5705   -2.3209 H   0  0  0  0  0  0  0  0  0  0  0  0
  -11.4772   38.7201    0.1466 H   0  0  0  0  0  0  0  0  0  0  0  0
  -10.5961   39.5512   -1.1632 H   0  0  0  0  0  0  0  0  0  0  0  0
  -10.1882   35.5222   -0.6580 H   0  0  0  0  0  0  0  0  0  0  0  0
  -11.2462   36.4575    0.4323 H   0  0  0  0  0  0  0  0  0  0  0  0
   -5.0068   41.1528   -5.4891 H   0  0  0  0  0  0  0  0  0  0  0  0
   -5.7735   42.3504   -8.1175 H   0  0  0  0  0  0  0  0  0  0  0  0
   -4.7399   44.4534   -7.1533 H   0  0  0  0  0  0  0  0  0  0  0  0
   -4.6723   43.6014   -5.5733 H   0  0  0  0  0  0  0  0  0  0  0  0
   -7.7655   45.3669   -5.1954 H   0  0  0  0  0  0  0  0  0  0  0  0
   -6.0524   45.5208   -4.9917 H   0  0  0  0  0  0  0  0  0  0  0  0
   -4.4036   41.3779   -9.4958 H   0  0  0  0  0  0  0  0  0  0  0  0
   -1.4951   41.5688   -8.9135 H   0  0  0  0  0  0  0  0  0  0  0  0
   -1.2465   39.8080  -10.7197 H   0  0  0  0  0  0  0  0  0  0  0  0
   -3.4903   40.1832  -11.7315 H   0  0  0  0  0  0  0  0  0  0  0  0
   -4.2405   39.4713  -10.2629 H   0  0  0  0  0  0  0  0  0  0  0  0
   -1.0690   39.3240   -8.3019 H   0  0  0  0  0  0  0  0  0  0  0  0
   -1.7881   37.9520   -9.2113 H   0  0  0  0  0  0  0  0  0  0  0  0
   -2.8401   39.0320   -8.2348 H   0  0  0  0  0  0  0  0  0  0  0  0
   -4.1293   37.8424  -12.0941 H   0  0  0  0  0  0  0  0  0  0  0  0
   -3.0974   37.3376  -10.7132 H   0  0  0  0  0  0  0  0  0  0  0  0
   -2.3472   38.0496  -12.1819 H   0  0  0  0  0  0  0  0  0  0  0  0
   -3.6345   43.4741  -10.2988 H   0  0  0  0  0  0  0  0  0  0  0  0
   -2.7701   43.7643  -12.9910 H   0  0  0  0  0  0  0  0  0  0  0  0
   -3.5557   46.1624  -12.7162 H   0  0  0  0  0  0  0  0  0  0  0  0
   -3.8774   45.7765  -10.9915 H   0  0  0  0  0  0  0  0  0  0  0  0
   -1.2570   44.7932   -9.9480 H   0  0  0  0  0  0  0  0  0  0  0  0
    0.6573   46.5504  -11.1445 H   0  0  0  0  0  0  0  0  0  0  0  0
    0.3526   46.5285   -8.7500 H   0  0  0  0  0  0  0  0  0  0  0  0
    2.0410   46.0422   -9.1238 H   0  0  0  0  0  0  0  0  0  0  0  0
    0.4979   43.0083  -10.9012 H   0  0  0  0  0  0  0  0  0  0  0  0
    3.1889   42.7557  -12.0660 H   0  0  0  0  0  0  0  0  0  0  0  0
    1.0747   40.6628  -11.3693 H   0  0  0  0  0  0  0  0  0  0  0  0
    1.9675   41.8565   -9.4170 H   0  0  0  0  0  0  0  0  0  0  0  0
    3.6437   41.5044   -9.9584 H   0  0  0  0  0  0  0  0  0  0  0  0
    2.5922   39.9167  -13.1776 H   0  0  0  0  0  0  0  0  0  0  0  0
    2.8713   39.0137  -11.6501 H   0  0  0  0  0  0  0  0  0  0  0  0
    4.0074   40.3140  -12.1451 H   0  0  0  0  0  0  0  0  0  0  0  0
    2.9431   39.9857   -8.1600 H   0  0  0  0  0  0  0  0  0  0  0  0
    3.2227   39.0913   -9.6925 H   0  0  0  0  0  0  0  0  0  0  0  0
    1.5465   39.4434   -9.1510 H   0  0  0  0  0  0  0  0  0  0  0  0
   -0.2243   42.3922  -13.0820 H   0  0  0  0  0  0  0  0  0  0  0  0
    0.4225   41.1216  -15.5734 H   0  0  0  0  0  0  0  0  0  0  0  0
   -1.8900   41.6887  -16.2160 H   0  0  0  0  0  0  0  0  0  0  0  0
   -2.0264   42.7323  -14.7603 H   0  0  0  0  0  0  0  0  0  0  0  0
   -1.7964   40.7691  -13.3205 H   0  0  0  0  0  0  0  0  0  0  0  0
   -3.9778   39.7180  -13.8315 H   0  0  0  0  0  0  0  0  0  0  0  0
   -3.9541   40.4785  -15.4587 H   0  0  0  0  0  0  0  0  0  0  0  0
   -4.0330   41.5066  -13.9879 H   0  0  0  0  0  0  0  0  0  0  0  0
   -0.3986   39.3848  -14.8179 H   0  0  0  0  0  0  0  0  0  0  0  0
   -1.8123   39.1397  -15.8986 H   0  0  0  0  0  0  0  0  0  0  0  0
   -1.8414   38.4961  -14.2219 H   0  0  0  0  0  0  0  0  0  0  0  0
    0.1242   44.5459  -14.6154 H   0  0  0  0  0  0  0  0  0  0  0  0
    0.1320   45.4234  -17.3941 H   0  0  0  0  0  0  0  0  0  0  0  0
    0.3242   47.7117  -16.3888 H   0  0  0  0  0  0  0  0  0  0  0  0
    0.4436   46.9490  -14.7668 H   0  0  0  0  0  0  0  0  0  0  0  0
    2.6037   44.4703  -15.2016 H   0  0  0  0  0  0  0  0  0  0  0  0
    4.6874   46.1606  -16.2913 H   0  0  0  0  0  0  0  0  0  0  0  0
    6.1993   44.4404  -15.1543 H   0  0  0  0  0  0  0  0  0  0  0  0
    4.6969   43.6157  -14.6164 H   0  0  0  0  0  0  0  0  0  0  0  0
    3.0733   43.3700  -17.5280 H   0  0  0  0  0  0  0  0  0  0  0  0
    5.3155   42.0662  -18.7428 H   0  0  0  0  0  0  0  0  0  0  0  0
    2.3875   42.0653  -19.6126 H   0  0  0  0  0  0  0  0  0  0  0  0
    2.6397   41.4266  -17.2682 H   0  0  0  0  0  0  0  0  0  0  0  0
    3.9429   40.2685  -17.7007 H   0  0  0  0  0  0  0  0  0  0  0  0
    3.9465   41.2070  -21.3347 H   0  0  0  0  0  0  0  0  0  0  0  0
    2.9276   39.8987  -20.6442 H   0  0  0  0  0  0  0  0  0  0  0  0
    4.6409   40.0681  -20.1316 H   0  0  0  0  0  0  0  0  0  0  0  0
    1.8180   39.1189  -17.2948 H   0  0  0  0  0  0  0  0  0  0  0  0
    2.3341   38.9458  -19.0066 H   0  0  0  0  0  0  0  0  0  0  0  0
    1.0309   40.1039  -18.5741 H   0  0  0  0  0  0  0  0  0  0  0  0
    3.2700   44.7670  -19.7719 H   0  0  0  0  0  0  0  0  0  0  0  0
    3.7468   44.7416  -22.5262 H   0  0  0  0  0  0  0  0  0  0  0  0
    3.2744   47.1705  -22.4676 H   0  0  0  0  0  0  0  0  0  0  0  0
    3.4564   47.1524  -20.6806 H   0  0  0  0  0  0  0  0  0  0  0  0
    1.5424   45.5857  -20.5296 H   0  0  0  0  0  0  0  0  0  0  0  0
    1.3407   45.6929  -22.3113 H   0  0  0  0  0  0  0  0  0  0  0  0
  1  2  1  0  0  0  0
  1108  1  0  0  0  0
  1109  1  0  0  0  0
  1110  1  0  0  0  0
  2  3  1  0  0  0  0
  2  5  1  0  0  0  0
  2111  1  6  0  0  0
  3  4  2  0  0  0  0
  3  7  1  0  0  0  0
  5  6  1  0  0  0  0
  5112  1  0  0  0  0
  5113  1  0  0  0  0
  6114  1  0  0  0  0
  7  8  1  0  0  0  0
  7115  1  0  0  0  0
  8  9  1  0  0  0  0
  8 11  1  0  0  0  0
  8116  1  6  0  0  0
  9 10  2  0  0  0  0
  9 15  1  0  0  0  0
 11 12  1  0  0  0  0
 11117  1  0  0  0  0
 11118  1  0  0  0  0
 12 13  1  0  0  0  0
 12 14  1  0  0  0  0
 12119  1  0  0  0  0
 13120  1  0  0  0  0
 13121  1  0  0  0  0
 13122  1  0  0  0  0
 14123  1  0  0  0  0
 14124  1  0  0  0  0
 14125  1  0  0  0  0
 15 16  1  0  0  0  0
 15126  1  0  0  0  0
 16 17  1  0  0  0  0
 16 19  1  0  0  0  0
 16127  1  6  0  0  0
 17 18  2  0  0  0  0
 17 26  1  0  0  0  0
 19 20  1  0  0  0  0
 19128  1  0  0  0  0
 19129  1  0  0  0  0
 20 21  1  0  0  0  0
 20130  1  0  0  0  0
 20131  1  0  0  0  0
 21 22  1  0  0  0  0
 21132  1  0  0  0  0
 21133  1  0  0  0  0
 22 23  1  0  0  0  0
 22134  1  0  0  0  0
 23 24  1  0  0  0  0
 23 25  1  0  0  0  0
 24135  1  0  0  0  0
 24136  1  0  0  0  0
 25137  1  0  0  0  0
 25138  1  0  0  0  0
 26 27  1  0  0  0  0
 26139  1  0  0  0  0
 27 28  1  0  0  0  0
 27 30  1  0  0  0  0
 27140  1  6  0  0  0
 28 29  2  0  0  0  0
 28 34  1  0  0  0  0
 30 31  1  0  0  0  0
 30141  1  0  0  0  0
 30142  1  0  0  0  0
 31 32  2  0  0  0  0
 31 33  1  0  0  0  0
 33143  1  0  0  0  0
 33144  1  0  0  0  0
 34 35  1  0  0  0  0
 34145  1  0  0  0  0
 35 36  1  0  0  0  0
 35 38  1  0  0  0  0
 35146  1  1  0  0  0
 36 37  2  0  0  0  0
 36 42  1  0  0  0  0
 38 39  1  0  0  0  0
 38 40  1  0  0  0  0
 38147  1  6  0  0  0
 39 41  1  0  0  0  0
 39148  1  0  0  0  0
 39149  1  0  0  0  0
 40150  1  0  0  0  0
 40151  1  0  0  0  0
 40152  1  0  0  0  0
 41153  1  0  0  0  0
 41154  1  0  0  0  0
 41155  1  0  0  0  0
 42 43  1  0  0  0  0
 42156  1  0  0  0  0
 43 44  1  0  0  0  0
 43 46  1  0  0  0  0
 43157  1  6  0  0  0
 44 45  2  0  0  0  0
 44 50  1  0  0  0  0
 46 47  1  0  0  0  0
 46158  1  0  0  0  0
 46159  1  0  0  0  0
 47 48  1  0  0  0  0
 47 49  2  0  0  0  0
 50 51  1  0  0  0  0
 50160  1  0  0  0  0
 51 52  1  0  0  0  0
 51 54  1  0  0  0  0
 51161  1  6  0  0  0
 52 53  2  0  0  0  0
 52 58  1  0  0  0  0
 54 55  1  0  0  0  0
 54162  1  0  0  0  0
 54163  1  0  0  0  0
 55 56  1  0  0  0  0
 55 57  2  0  0  0  0
 58 59  1  0  0  0  0
 58164  1  0  0  0  0
 59 60  1  0  0  0  0
 59 62  1  0  0  0  0
 59165  1  1  0  0  0
 60 61  2  0  0  0  0
 60 66  1  0  0  0  0
 62 63  1  0  0  0  0
 62 64  1  0  0  0  0
 62166  1  1  0  0  0
 63 65  1  0  0  0  0
 63167  1  0  0  0  0
 63168  1  0  0  0  0
 64169  1  0  0  0  0
 64170  1  0  0  0  0
 64171  1  0  0  0  0
 65172  1  0  0  0  0
 65173  1  0  0  0  0
 65174  1  0  0  0  0
 66 67  1  0  0  0  0
 66175  1  0  0  0  0
 67 68  1  0  0  0  0
 67 70  1  0  0  0  0
 67176  1  6  0  0  0
 68 69  2  0  0  0  0
 68 74  1  0  0  0  0
 70 71  1  0  0  0  0
 70177  1  0  0  0  0
 70178  1  0  0  0  0
 71 72  1  0  0  0  0
 71 73  1  0  0  0  0
 71179  1  0  0  0  0
 72180  1  0  0  0  0
 72181  1  0  0  0  0
 72182  1  0  0  0  0
 73183  1  0  0  0  0
 73184  1  0  0  0  0
 73185  1  0  0  0  0
 74 75  1  0  0  0  0
 74186  1  0  0  0  0
 75 76  1  0  0  0  0
 75 78  1  0  0  0  0
 75187  1  6  0  0  0
 76 77  2  0  0  0  0
 76 82  1  0  0  0  0
 78 79  1  0  0  0  0
 78188  1  0  0  0  0
 78189  1  0  0  0  0
 79 80  1  0  0  0  0
 79 81  2  0  0  0  0
 82 83  1  0  0  0  0
 82190  1  0  0  0  0
 83 84  1  0  0  0  0
 83 86  1  0  0  0  0
 83191  1  6  0  0  0
 84 85  2  0  0  0  0
 84 90  1  0  0  0  0
 86 87  1  0  0  0  0
 86192  1  0  0  0  0
 86193  1  0  0  0  0
 87 88  1  0  0  0  0
 87 89  2  0  0  0  0
 90 91  1  0  0  0  0
 90194  1  0  0  0  0
 91 92  1  0  0  0  0
 91 94  1  0  0  0  0
 91195  1  1  0  0  0
 92 93  2  0  0  0  0
 92 98  1  0  0  0  0
 94 95  1  0  0  0  0
 94 96  1  0  0  0  0
 94196  1  6  0  0  0
 95 97  1  0  0  0  0
 95197  1  0  0  0  0
 95198  1  0  0  0  0
 96199  1  0  0  0  0
 96200  1  0  0  0  0
 96201  1  0  0  0  0
 97202  1  0  0  0  0
 97203  1  0  0  0  0
 97204  1  0  0  0  0
 98 99  1  0  0  0  0
 98205  1  0  0  0  0
 99100  1  0  0  0  0
 99102  1  0  0  0  0
 99206  1  6  0  0  0
100101  1  0  0  0  0
100107  2  0  0  0  0
102103  1  0  0  0  0
102207  1  0  0  0  0
102208  1  0  0  0  0
103104  1  0  0  0  0
103209  1  0  0  0  0
103210  1  0  0  0  0
104105  1  0  0  0  0
104106  2  0  0  0  0
M  CHG  7   1   1  48  -1  56  -1  80  -1  88  -1 101  -1 105  -1
M  END
