5icv_ligand
 OpenBabel08222323333D

146148  0  0  1  0  0  0  0  0999 V2000
   12.6910   59.0290   12.0050 N   0  0  0  0  0  0  0  0  0  0  0  0
   13.2990   58.6510   10.7540 C   0  0  2  0  0  0  0  0  0  0  0  0
   14.6790   58.1220   11.0690 C   0  0  0  0  0  0  0  0  0  0  0  0
   15.5840   58.8820   11.4010 O   0  0  0  0  0  0  0  0  0  0  0  0
   13.3250   59.8620    9.8130 C   0  0  0  0  0  0  0  0  0  0  0  0
   14.3010   59.8290    8.6790 C   0  0  0  0  0  0  0  0  0  0  0  0
   13.9780   61.2770    7.6120 S   0  0  0  0  0  0  0  0  0  0  0  0
   13.2630   62.4090    8.8450 C   0  0  0  0  0  0  0  0  0  0  0  0
   14.8280   56.8030   11.0570 N   0  0  0  0  0  0  0  0  0  0  0  0
   16.1130   56.2240   11.3980 C   0  0  2  0  0  0  0  0  0  0  0  0
   17.1090   56.5060   10.2770 C   0  0  0  0  0  0  0  0  0  0  0  0
   16.7260   56.6340    9.1110 O   0  0  0  0  0  0  0  0  0  0  0  0
   15.9930   54.7250   11.6680 C   0  0  0  0  0  0  0  0  0  0  0  0
   15.9750   53.8540   10.4430 C   0  0  0  0  0  0  0  0  0  0  0  0
   15.9520   52.3910   10.8530 C   0  0  0  0  0  0  0  0  0  0  0  0
   16.9670   52.1180   11.9550 C   0  0  0  0  0  0  0  0  0  0  0  0
   18.3670   52.3170   11.4790 N   0  3  0  0  0  0  0  0  0  0  0  0
   18.3740   56.6510   10.6550 N   0  0  0  0  0  0  0  0  0  0  0  0
   19.4350   56.8680    9.6850 C   0  0  2  0  0  0  0  0  0  0  0  0
   19.8790   55.5240    9.1290 C   0  0  0  0  0  0  0  0  0  0  0  0
   19.6190   54.4870    9.7290 O   0  0  0  0  0  0  0  0  0  0  0  0
   20.6030   57.6010   10.3250 C   0  0  0  0  0  0  0  0  0  0  0  0
   20.5520   55.5440    7.9870 N   0  0  0  0  0  0  0  0  0  0  0  0
   21.0680   54.3170    7.3850 C   0  0  2  0  0  0  0  0  0  0  0  0
   22.5790   54.1860    7.5770 C   0  0  0  0  0  0  0  0  0  0  0  0
   23.3280   55.1400    7.3660 O   0  5  0  0  0  0  0  0  0  0  0  0
   20.7350   54.2550    5.8850 C   0  0  0  0  0  0  0  0  0  0  0  0
   21.7140   53.3460    5.1470 C   0  0  0  0  0  0  0  0  0  0  0  0
   19.3190   53.7830    5.6920 C   0  0  0  0  0  0  0  0  0  0  0  0
   23.0790   53.1240    7.9470 O   0  0  0  0  0  0  0  0  0  0  0  0
   -7.5900   68.1110   13.8260 N   0  0  0  0  0  0  0  0  0  0  0  0
   -6.4160   67.6520   14.2830 C   0  0  0  0  0  0  0  0  0  0  0  0
   -5.2750   68.3440   14.1060 N   0  0  0  0  0  0  0  0  0  0  0  0
   -5.3160   69.5350   13.4550 C   0  0  0  0  0  0  0  0  0  0  0  0
   -6.4830   70.0610   12.9620 C   0  0  0  0  0  0  0  0  0  0  0  0
   -7.6690   69.2840   13.1740 C   0  0  0  0  0  0  0  0  0  0  0  0
   -8.9530   69.7440   12.6970 N   0  0  0  0  0  0  0  0  0  0  0  0
   -6.1410   71.2510   12.3660 N   0  0  0  0  0  0  0  0  0  0  0  0
   -4.8070   71.4590   12.4900 C   0  0  0  0  0  0  0  0  0  0  0  0
   -4.3240   70.4130   13.1670 N   0  0  0  0  0  0  0  0  0  0  0  0
   -3.0790   70.0040   13.5990 C   0  0  0  0  0  0  0  0  0  0  0  0
   -2.4450   70.3400   14.7930 C   0  0  0  0  0  0  0  0  0  0  0  0
   -2.8840   71.2690   15.7960 O   0  0  0  0  0  0  0  0  0  0  0  0
   -1.2240   69.5780   14.7690 C   0  0  0  0  0  0  0  0  0  0  0  0
   -0.2040   69.4920   15.6480 O   0  0  0  0  0  0  0  0  0  0  0  0
    0.9120   70.5430   15.9630 P   0  0  0  0  0  0  0  0  0  0  0  0
    2.2660   70.1080   15.2530 O   0  0  0  0  0  1  0  0  0  0  0  0
    1.0280   70.4360   17.4320 O   0  0  0  0  0  1  0  0  0  0  0  0
    0.5400   71.9070   15.5830 O   0  0  0  0  0  0  0  0  0  0  0  0
   -1.2810   68.8720   13.5710 C   0  0  0  0  0  0  0  0  0  0  0  0
   -2.3850   69.1070   12.9390 O   0  0  0  0  0  0  0  0  0  0  0  0
   -0.3020   67.8740   13.1460 C   0  0  0  0  0  0  0  0  0  0  0  0
   -0.8220   66.7330   13.8840 O   0  0  0  0  0  0  0  0  0  0  0  0
   -1.4450   65.3810   13.2440 P   0  0  2  0  0  0  0  0  0  0  0  0
   -2.5380   65.6840   12.1770 O   0  0  0  0  0  1  0  0  0  0  0  0
   -1.9470   64.5370   14.3310 O   0  0  0  0  0  0  0  0  0  0  0  0
   -0.1360   64.7770   12.5550 O   0  0  0  0  0  0  0  0  0  0  0  0
    0.0180   64.4650   11.0100 P   0  0  2  0  0  0  0  0  0  0  0  0
   -0.1060   65.8160   10.2050 O   0  0  0  0  0  1  0  0  0  0  0  0
   -0.9760   63.3470   10.6180 O   0  0  0  0  0  0  0  0  0  0  0  0
    1.4830   63.8490   10.9640 O   0  0  0  0  0  0  0  0  0  0  0  0
    3.8750   64.1180   10.7660 C   0  0  0  0  0  0  0  0  0  0  0  0
    2.6140   64.5690   11.4820 C   0  0  0  0  0  0  0  0  0  0  0  0
    5.0840   64.7180   11.3540 C   0  0  0  0  0  0  0  0  0  0  0  0
    3.9950   62.5980   10.8600 C   0  0  0  0  0  0  0  0  0  0  0  0
    3.6860   64.5260    9.2790 C   0  0  1  0  0  0  0  0  0  0  0  0
    3.9310   65.9200    9.1870 O   0  0  0  0  0  0  0  0  0  0  0  0
    4.5470   63.8150    8.2680 C   0  0  0  0  0  0  0  0  0  0  0  0
    4.2670   62.6620    7.8540 O   0  0  0  0  0  0  0  0  0  0  0  0
    5.7420   64.5180    7.7850 N   0  0  0  0  0  0  0  0  0  0  0  0
    6.6080   63.8820    6.7890 C   0  0  0  0  0  0  0  0  0  0  0  0
    7.3920   62.7340    7.2920 C   0  0  0  0  0  0  0  0  0  0  0  0
    8.1680   63.0430    8.5430 C   0  0  0  0  0  0  0  0  0  0  0  0
    8.9750   64.0280    8.5650 O   0  0  0  0  0  0  0  0  0  0  0  0
    7.9600   62.1870    9.7110 N   0  0  0  0  0  0  0  0  0  0  0  0
    8.6970   62.4540   10.9740 C   0  0  0  0  0  0  0  0  0  0  0  0
   10.1500   62.1490   10.8930 C   0  0  0  0  0  0  0  0  0  0  0  0
   10.9590   62.0470   12.4190 S   0  0  0  0  0  0  0  0  0  0  0  0
   10.7730   60.4180   13.0510 C   0  0  0  0  0  0  0  0  0  0  0  0
   11.2990   59.3030   12.1260 C   0  0  0  0  0  0  0  0  0  0  0  0
   10.5230   58.7820   11.1460 O   0  0  0  0  0  0  0  0  0  0  0  0
   13.2683   59.1015   12.8183 H   0  0  0  0  0  0  0  0  0  0  0  0
   12.7086   57.8524   10.2810 H   0  0  0  0  0  0  0  0  0  0  0  0
   13.5557   60.7487   10.4218 H   0  0  0  0  0  0  0  0  0  0  0  0
   12.3191   59.9659    9.3802 H   0  0  0  0  0  0  0  0  0  0  0  0
   14.1697   58.9026    8.1005 H   0  0  0  0  0  0  0  0  0  0  0  0
   15.3283   59.8750    9.0694 H   0  0  0  0  0  0  0  0  0  0  0  0
   13.0019   63.3614    8.3605 H   0  0  0  0  0  0  0  0  0  0  0  0
   13.9972   62.5929    9.6432 H   0  0  0  0  0  0  0  0  0  0  0  0
   12.3578   61.9569    9.2764 H   0  0  0  0  0  0  0  0  0  0  0  0
   14.0586   56.2121   10.8142 H   0  0  0  0  0  0  0  0  0  0  0  0
   16.4782   56.7068   12.3164 H   0  0  0  0  0  0  0  0  0  0  0  0
   15.0584   54.5526   12.2219 H   0  0  0  0  0  0  0  0  0  0  0  0
   16.8487   54.4214   12.2890 H   0  0  0  0  0  0  0  0  0  0  0  0
   16.8748   54.0507    9.8416 H   0  0  0  0  0  0  0  0  0  0  0  0
   15.0787   54.0804    9.8469 H   0  0  0  0  0  0  0  0  0  0  0  0
   16.1936   51.7684    9.9789 H   0  0  0  0  0  0  0  0  0  0  0  0
   14.9465   52.1354   11.2185 H   0  0  0  0  0  0  0  0  0  0  0  0
   16.8512   51.0788   12.2966 H   0  0  0  0  0  0  0  0  0  0  0  0
   16.7752   52.8032   12.7938 H   0  0  0  0  0  0  0  0  0  0  0  0
   19.0084   52.1278   12.2332 H   0  0  0  0  0  0  0  0  0  0  0  0
   18.4844   53.2689   11.1690 H   0  0  0  0  0  0  0  0  0  0  0  0
   18.5541   51.6887   10.7133 H   0  0  0  0  0  0  0  0  0  0  0  0
   18.6016   56.6100   11.6279 H   0  0  0  0  0  0  0  0  0  0  0  0
   19.0448   57.4831    8.8607 H   0  0  0  0  0  0  0  0  0  0  0  0
   21.3938   57.7552    9.5761 H   0  0  0  0  0  0  0  0  0  0  0  0
   20.9992   57.0025   11.1585 H   0  0  0  0  0  0  0  0  0  0  0  0
   20.2613   58.5757   10.7034 H   0  0  0  0  0  0  0  0  0  0  0  0
   20.7099   56.4181    7.5276 H   0  0  0  0  0  0  0  0  0  0  0  0
   20.5824   53.4651    7.8833 H   0  0  0  0  0  0  0  0  0  0  0  0
   20.8239   55.2686    5.4671 H   0  0  0  0  0  0  0  0  0  0  0  0
   21.4547   53.3188    4.0783 H   0  0  0  0  0  0  0  0  0  0  0  0
   21.6566   52.3298    5.5642 H   0  0  0  0  0  0  0  0  0  0  0  0
   22.7362   53.7343    5.2665 H   0  0  0  0  0  0  0  0  0  0  0  0
   18.6327   54.4521    6.2318 H   0  0  0  0  0  0  0  0  0  0  0  0
   19.2169   52.7600    6.0831 H   0  0  0  0  0  0  0  0  0  0  0  0
   19.0723   53.7921    4.6201 H   0  0  0  0  0  0  0  0  0  0  0  0
   -6.3850   66.7032   14.8063 H   0  0  0  0  0  0  0  0  0  0  0  0
   -9.0251   70.6412   12.1962 H   0  0  0  0  0  0  0  0  0  0  0  0
   -9.7962   69.1747   12.8577 H   0  0  0  0  0  0  0  0  0  0  0  0
   -4.2414   72.3097   12.1127 H   0  0  0  0  0  0  0  0  0  0  0  0
   -2.2490   71.2945   16.5021 H   0  0  0  0  0  0  0  0  0  0  0  0
    0.7198   68.1375   13.4565 H   0  0  0  0  0  0  0  0  0  0  0  0
   -0.3238   67.7090   12.0587 H   0  0  0  0  0  0  0  0  0  0  0  0
    2.7132   64.3695   12.5592 H   0  0  0  0  0  0  0  0  0  0  0  0
    2.4670   65.6471   11.3208 H   0  0  0  0  0  0  0  0  0  0  0  0
    5.9711   64.3658   10.8072 H   0  0  0  0  0  0  0  0  0  0  0  0
    5.1633   64.4225   12.4106 H   0  0  0  0  0  0  0  0  0  0  0  0
    5.0210   65.8139   11.2835 H   0  0  0  0  0  0  0  0  0  0  0  0
    3.0988   62.1319   10.4246 H   0  0  0  0  0  0  0  0  0  0  0  0
    4.0862   62.3019   11.9155 H   0  0  0  0  0  0  0  0  0  0  0  0
    4.8863   62.2657   10.3076 H   0  0  0  0  0  0  0  0  0  0  0  0
    2.6377   64.3265    9.0121 H   0  0  0  0  0  0  0  0  0  0  0  0
    3.3157   66.3858    9.7410 H   0  0  0  0  0  0  0  0  0  0  0  0
    5.9642   65.4281    8.1348 H   0  0  0  0  0  0  0  0  0  0  0  0
    7.3122   64.6394    6.4142 H   0  0  0  0  0  0  0  0  0  0  0  0
    5.9755   63.5281    5.9616 H   0  0  0  0  0  0  0  0  0  0  0  0
    8.1008   62.4260    6.5092 H   0  0  0  0  0  0  0  0  0  0  0  0
    6.7000   61.9063    7.5065 H   0  0  0  0  0  0  0  0  0  0  0  0
    7.3202   61.4201    9.6596 H   0  0  0  0  0  0  0  0  0  0  0  0
    8.2563   61.8366   11.7706 H   0  0  0  0  0  0  0  0  0  0  0  0
    8.5789   63.5180   11.2269 H   0  0  0  0  0  0  0  0  0  0  0  0
   10.6331   62.9414   10.3025 H   0  0  0  0  0  0  0  0  0  0  0  0
   10.2685   61.1841   10.3783 H   0  0  0  0  0  0  0  0  0  0  0  0
    9.7021   60.2395   13.2277 H   0  0  0  0  0  0  0  0  0  0  0  0
   11.3173   60.3566   14.0049 H   0  0  0  0  0  0  0  0  0  0  0  0
  1  2  1  0  0  0  0
  1 82  1  0  0  0  0
  2  3  1  0  0  0  0
  2  5  1  0  0  0  0
  2 83  1  6  0  0  0
  3  4  2  0  0  0  0
  3  9  1  0  0  0  0
  5  6  1  0  0  0  0
  5 84  1  0  0  0  0
  5 85  1  0  0  0  0
  6  7  1  0  0  0  0
  6 86  1  0  0  0  0
  6 87  1  0  0  0  0
  7  8  1  0  0  0  0
  8 88  1  0  0  0  0
  8 89  1  0  0  0  0
  8 90  1  0  0  0  0
  9 10  1  0  0  0  0
  9 91  1  0  0  0  0
 10 11  1  0  0  0  0
 10 13  1  0  0  0  0
 10 92  1  1  0  0  0
 11 12  2  0  0  0  0
 11 18  1  0  0  0  0
 13 14  1  0  0  0  0
 13 93  1  0  0  0  0
 13 94  1  0  0  0  0
 14 15  1  0  0  0  0
 14 95  1  0  0  0  0
 14 96  1  0  0  0  0
 15 16  1  0  0  0  0
 15 97  1  0  0  0  0
 15 98  1  0  0  0  0
 16 17  1  0  0  0  0
 16 99  1  0  0  0  0
 16100  1  0  0  0  0
 17101  1  0  0  0  0
 17102  1  0  0  0  0
 17103  1  0  0  0  0
 18 19  1  0  0  0  0
 18104  1  0  0  0  0
 19 20  1  0  0  0  0
 19 22  1  0  0  0  0
 19105  1  6  0  0  0
 20 21  2  0  0  0  0
 20 23  1  0  0  0  0
 22106  1  0  0  0  0
 22107  1  0  0  0  0
 22108  1  0  0  0  0
 23 24  1  0  0  0  0
 23109  1  0  0  0  0
 24 25  1  0  0  0  0
 24 27  1  0  0  0  0
 24110  1  1  0  0  0
 25 26  1  0  0  0  0
 25 30  2  0  0  0  0
 27 28  1  0  0  0  0
 27 29  1  0  0  0  0
 27111  1  0  0  0  0
 28112  1  0  0  0  0
 28113  1  0  0  0  0
 28114  1  0  0  0  0
 29115  1  0  0  0  0
 29116  1  0  0  0  0
 29117  1  0  0  0  0
 32 31  2  0  0  0  0
 32118  1  0  0  0  0
 33 32  1  0  0  0  0
 34 33  2  0  0  0  0
 34 35  1  0  0  0  0
 35 36  2  0  0  0  0
 36 31  1  0  0  0  0
 36 37  1  0  0  0  0
 37119  1  0  0  0  0
 37120  1  0  0  0  0
 38 35  1  0  0  0  0
 39 38  2  0  0  0  0
 39121  1  0  0  0  0
 40 34  1  0  0  0  0
 40 39  1  0  0  0  0
 41 40  1  0  0  0  0
 41 42  2  0  0  0  0
 42 43  1  0  0  0  0
 43122  1  0  0  0  0
 44 42  1  0  0  0  0
 44 45  1  0  0  0  0
 45 46  1  0  0  0  0
 46 47  1  0  0  0  0
 46 48  1  0  0  0  0
 46 49  2  0  0  0  0
 50 44  2  0  0  0  0
 50 51  1  0  0  0  0
 51 41  1  0  0  0  0
 52 50  1  0  0  0  0
 52123  1  0  0  0  0
 52124  1  0  0  0  0
 53 52  1  0  0  0  0
 54 53  1  0  0  0  0
 54 55  1  6  0  0  0
 54 56  2  0  0  0  0
 57 54  1  0  0  0  0
 58 57  1  0  0  0  0
 58 59  1  6  0  0  0
 58 60  2  0  0  0  0
 61 58  1  0  0  0  0
 62 63  1  0  0  0  0
 62 64  1  0  0  0  0
 62 65  1  0  0  0  0
 63 61  1  0  0  0  0
 63125  1  0  0  0  0
 63126  1  0  0  0  0
 64127  1  0  0  0  0
 64128  1  0  0  0  0
 64129  1  0  0  0  0
 65130  1  0  0  0  0
 65131  1  0  0  0  0
 65132  1  0  0  0  0
 66 62  1  0  0  0  0
 66 67  1  0  0  0  0
 66133  1  6  0  0  0
 67134  1  0  0  0  0
 68 66  1  0  0  0  0
 68 69  2  0  0  0  0
 70 68  1  0  0  0  0
 70135  1  0  0  0  0
 71 70  1  0  0  0  0
 71136  1  0  0  0  0
 71137  1  0  0  0  0
 72 71  1  0  0  0  0
 72138  1  0  0  0  0
 72139  1  0  0  0  0
 73 72  1  0  0  0  0
 73 74  2  0  0  0  0
 75 73  1  0  0  0  0
 75140  1  0  0  0  0
 76 75  1  0  0  0  0
 76141  1  0  0  0  0
 76142  1  0  0  0  0
 77 76  1  0  0  0  0
 77143  1  0  0  0  0
 77144  1  0  0  0  0
 78 77  1  0  0  0  0
 79 78  1  0  0  0  0
 79 80  1  0  0  0  0
 79145  1  0  0  0  0
 79146  1  0  0  0  0
 80  1  1  0  0  0  0
 80 81  2  0  0  0  0
M  CHG  2  17   1  26  -1
M  END
