2p8o_ligand
  MOE2020           3D

 28 29  0  0  1  0  0  0  0  0999 V2000
   26.8290    2.7420   39.7040 C   0  0  3  0  0  0  0  0  0  0  0  0
   25.7639    2.6048   39.5175 H   0  0  0  0  0  0  0  0  0  0  0  0
   26.4230    5.0710   40.3900 C   0  0  0  0  0  0  0  0  0  0  0  0
   25.8240    5.6450   42.6270 C   0  0  0  0  0  0  0  0  0  0  0  0
   26.2660    3.3680   42.0550 C   0  0  0  0  0  0  0  0  0  0  0  0
   25.9140    4.3290   42.9900 C   0  0  0  0  0  0  0  0  0  0  0  0
   26.0680    6.0270   41.3340 C   0  0  0  0  0  0  0  0  0  0  0  0
   27.1780    0.5370   39.0740 O   0  0  0  0  0  0  0  0  0  0  0  0
   25.6780    0.6970   36.7890 O   0  3  0  0  0  0  0  0  0  0  0  0
   25.2532    1.3117   36.1863 H   0  0  0  0  0  0  0  0  0  0  0  0
   25.0929    0.5183   37.5288 H   0  0  0  0  0  0  0  0  0  0  0  0
   26.9940    3.0670   38.4850 O   0  0  0  0  0  0  0  0  0  0  0  0
   28.2220   -0.0240   36.7140 O   0  3  0  0  0  0  0  0  0  0  0  0
   28.0363   -0.1241   35.7775 H   0  0  0  0  0  0  0  0  0  0  0  0
   27.9788   -0.8294   37.1764 H   0  0  0  0  0  0  0  0  0  0  0  0
   28.9140    2.1630   37.8980 O   0  3  0  0  0  0  0  0  0  0  0  0
   29.2402    2.7198   37.1873 H   0  0  0  0  0  0  0  0  0  0  0  0
   29.5393    1.4530   38.0610 H   0  0  0  0  0  0  0  0  0  0  0  0
   26.9310    1.4830   40.0100 N   0  3  0  0  0  0  0  0  0  0  0  0
   27.6792    1.4154   40.6851 H   0  0  0  0  0  0  0  0  0  0  0  0
   26.0579    1.2265   40.4482 H   0  0  0  0  0  0  0  0  0  0  0  0
   26.5110    3.7370   40.7510 C   0  0  0  0  0  0  0  0  0  0  0  0
   27.2240    1.4220   37.4020 V   0  7  0  0  0  0  0  0  0  0  0  0
   26.6326    5.3717   39.3635 H   0  0  0  0  0  0  0  0  0  0  0  0
   25.5563    6.3947   43.3715 H   0  0  0  0  0  0  0  0  0  0  0  0
   26.3487    2.3223   42.3513 H   0  0  0  0  0  0  0  0  0  0  0  0
   25.7080    4.0348   44.0191 H   0  0  0  0  0  0  0  0  0  0  0  0
   25.9841    7.0753   41.0473 H   0  0  0  0  0  0  0  0  0  0  0  0
  1  2  1  0  0  0  0
  1 12  1  0  0  0  0
  1 19  1  0  0  0  0
  1 22  1  0  0  0  0
  3  7  2  0  0  0  0
  3 22  1  0  0  0  0
  3 24  1  0  0  0  0
  4  6  2  0  0  0  0
  4  7  1  0  0  0  0
  4 25  1  0  0  0  0
  5  6  1  0  0  0  0
  5 22  2  0  0  0  0
  5 26  1  0  0  0  0
  6 27  1  0  0  0  0
  7 28  1  0  0  0  0
  8 19  1  0  0  0  0
  8 23  1  0  0  0  0
  9 10  1  0  0  0  0
  9 11  1  0  0  0  0
  9 23  1  0  0  0  0
 12 23  1  0  0  0  0
 13 14  1  0  0  0  0
 13 15  1  0  0  0  0
 13 23  1  0  0  0  0
 16 17  1  0  0  0  0
 16 18  1  0  0  0  0
 16 23  1  0  0  0  0
 19 20  1  0  0  0  0
 19 21  1  0  0  0  0
M  CHG  1   9   1
M  CHG  1  13   1
M  CHG  1  16   1
M  CHG  1  19   1
M  CHG  1  23  -3
M  END
$$$$
